<?xml version="1.0" encoding="UTF-8"?>

<!-- generated on 2025-11-23 02:23:42 by Eclipse SUMO netconvert Version 1.18.0
<configuration xmlns:xsi="http://www.w3.org/2001/XMLSchema-instance" xsi:noNamespaceSchemaLocation="http://sumo.dlr.de/xsd/netconvertConfiguration.xsd">

    <input>
        <sumo-net-file value="/home/wetcatto/.code/machine-learning-le/single_intersection.net.xml"/>
    </input>

    <output>
        <plain-output-prefix value="/home/wetcatto/.code/machine-learning-le/plain"/>
    </output>

    <processing>
        <geometry.min-radius.fix.railways value="false"/>
        <geometry.avoid-overlap value="0"/>
        <geometry.max-grade.fix value="false"/>
        <offset.disable-normalization value="true"/>
        <lefthand value="0"/>
    </processing>

    <junctions>
        <no-turnarounds value="true"/>
        <junctions.corner-detail value="5"/>
        <junctions.limit-turn-speed value="5.50"/>
        <rectangular-lane-cut value="0"/>
    </junctions>

    <pedestrian>
        <walkingareas value="0"/>
    </pedestrian>

</configuration>
-->

<tlLogics version="1.16" xmlns:xsi="http://www.w3.org/2001/XMLSchema-instance" xsi:noNamespaceSchemaLocation="http://sumo.dlr.de/xsd/tllogic_file.xsd">
    <tlLogic id="B1" type="static" programID="0" offset="0">
        <phase duration="42" state="GGggrrrrGGggrrrr"/>
        <phase duration="3"  state="yyyyrrrryyyyrrrr"/>
        <phase duration="42" state="rrrrGGggrrrrGGgg"/>
        <phase duration="3"  state="rrrryyyyrrrryyyy"/>
    </tlLogic>

    <connection from="A1B1" to="B1B0" fromLane="0" toLane="0" tl="B1" linkIndex="12"/>
    <connection from="A1B1" to="B1C1" fromLane="0" toLane="0" tl="B1" linkIndex="13"/>
    <connection from="A1B1" to="B1B2" fromLane="0" toLane="0" tl="B1" linkIndex="14"/>
    <connection from="A1B1" to="B1A1" fromLane="0" toLane="0" tl="B1" linkIndex="15"/>
    <connection from="B0B1" to="B1C1" fromLane="0" toLane="0" tl="B1" linkIndex="8"/>
    <connection from="B0B1" to="B1B2" fromLane="0" toLane="0" tl="B1" linkIndex="9"/>
    <connection from="B0B1" to="B1A1" fromLane="0" toLane="0" tl="B1" linkIndex="10"/>
    <connection from="B0B1" to="B1B0" fromLane="0" toLane="0" tl="B1" linkIndex="11"/>
    <connection from="B2B1" to="B1A1" fromLane="0" toLane="0" tl="B1" linkIndex="0"/>
    <connection from="B2B1" to="B1B0" fromLane="0" toLane="0" tl="B1" linkIndex="1"/>
    <connection from="B2B1" to="B1C1" fromLane="0" toLane="0" tl="B1" linkIndex="2"/>
    <connection from="B2B1" to="B1B2" fromLane="0" toLane="0" tl="B1" linkIndex="3"/>
    <connection from="C1B1" to="B1B2" fromLane="0" toLane="0" tl="B1" linkIndex="4"/>
    <connection from="C1B1" to="B1A1" fromLane="0" toLane="0" tl="B1" linkIndex="5"/>
    <connection from="C1B1" to="B1B0" fromLane="0" toLane="0" tl="B1" linkIndex="6"/>
    <connection from="C1B1" to="B1C1" fromLane="0" toLane="0" tl="B1" linkIndex="7"/>
</tlLogics>
