<?xml version="1.0" encoding="UTF-8"?>

<!-- generated on 2025-11-28 20:54:36 by Eclipse SUMO netedit Version 1.24.0
<neteditConfiguration xmlns:xsi="http://www.w3.org/2001/XMLSchema-instance" xsi:noNamespaceSchemaLocation="http://sumo.dlr.de/xsd/neteditConfiguration.xsd">

    <input>
        <sumo-net-file value="quirino_avenue.net.xml"/>
    </input>

    <output>
        <output-file value="quirino_avenue.net.xml"/>
    </output>

    <processing>
        <geometry.min-radius.fix.railways value="false"/>
        <geometry.avoid-overlap value="false"/>
        <geometry.max-grade.fix value="false"/>
        <offset.disable-normalization value="true"/>
        <lefthand value="0"/>
    </processing>

    <junctions>
        <no-turnarounds value="true"/>
        <junctions.corner-detail value="5"/>
        <junctions.limit-turn-speed value="5.50"/>
        <rectangular-lane-cut value="0"/>
    </junctions>

    <pedestrian>
        <walkingareas value="0"/>
    </pedestrian>

</neteditConfiguration>
-->

<net version="1.20" junctionCornerDetail="5" limitTurnSpeed="5.50" avoidOverlap="0" xmlns:xsi="http://www.w3.org/2001/XMLSchema-instance" xsi:noNamespaceSchemaLocation="http://sumo.dlr.de/xsd/net_file.xsd">

    <location netOffset="-787404.57,-781881.41" convBoundary="17.75,8.14,361.99,414.60" origBoundary="125.601601,7.066283,125.604951,7.070030" projParameter="+proj=utm +zone=51 +ellps=WGS84 +datum=WGS84 +units=m +no_defs"/>

    <type id="highway.footway" priority="1" numLanes="1" speed="2.78" allow="pedestrian" oneway="1" width="2.00"/>
    <type id="highway.primary" priority="12" numLanes="2" speed="27.78" disallow="tram rail_urban rail rail_electric rail_fast ship container cable_car subway aircraft wheelchair scooter drone" oneway="0"/>
    <type id="highway.secondary" priority="11" numLanes="1" speed="27.78" disallow="tram rail_urban rail rail_electric rail_fast ship container cable_car subway aircraft wheelchair scooter drone" oneway="0"/>

    <edge id=":13261930122_0" function="internal">
        <lane id=":13261930122_0_0" index="0" disallow="tram rail_urban rail rail_electric rail_fast ship container cable_car subway aircraft wheelchair scooter drone" speed="8.33" length="0.64" shape="139.00,215.39 139.49,215.80"/>
        <lane id=":13261930122_0_1" index="1" disallow="tram rail_urban rail rail_electric rail_fast ship container cable_car subway aircraft wheelchair scooter drone" speed="8.33" length="0.64" shape="136.96,217.85 137.45,218.26"/>
    </edge>
    <edge id=":13261930124_0" function="internal">
        <lane id=":13261930124_0_0" index="0" disallow="tram rail_urban rail rail_electric rail_fast ship container cable_car subway aircraft wheelchair scooter drone" speed="8.33" length="0.32" shape="130.38,225.62 130.14,225.41"/>
        <lane id=":13261930124_0_1" index="1" disallow="tram rail_urban rail rail_electric rail_fast ship container cable_car subway aircraft wheelchair scooter drone" speed="8.33" length="0.32" shape="132.49,223.21 132.25,223.00"/>
    </edge>
    <edge id=":13329873234_0" function="internal">
        <lane id=":13329873234_0_0" index="0" disallow="tram rail_urban rail rail_electric rail_fast ship container cable_car subway aircraft wheelchair scooter drone" speed="8.33" length="0.30" shape="143.03,200.84 143.25,200.64"/>
        <lane id=":13329873234_0_1" index="1" disallow="tram rail_urban rail rail_electric rail_fast ship container cable_car subway aircraft wheelchair scooter drone" speed="8.33" length="0.30" shape="145.17,203.22 145.39,203.02"/>
        <lane id=":13329873234_0_2" index="2" disallow="tram rail_urban rail rail_electric rail_fast ship container cable_car subway aircraft wheelchair scooter drone" speed="8.33" length="0.30" shape="147.30,205.60 147.53,205.40"/>
    </edge>
    <edge id=":260143512_0" function="internal">
        <lane id=":260143512_0_0" index="0" disallow="tram rail_urban rail rail_electric rail_fast ship container cable_car subway aircraft wheelchair scooter drone" speed="8.33" length="0.29" shape="75.13,259.60 75.30,259.45"/>
        <lane id=":260143512_0_1" index="1" disallow="tram rail_urban rail rail_electric rail_fast ship container cable_car subway aircraft wheelchair scooter drone" speed="8.33" length="0.29" shape="77.24,262.01 77.44,261.83"/>
        <lane id=":260143512_0_2" index="2" disallow="tram rail_urban rail rail_electric rail_fast ship container cable_car subway aircraft wheelchair scooter drone" speed="8.33" length="0.29" shape="79.34,264.42 79.58,264.21"/>
        <lane id=":260143512_0_3" index="3" disallow="tram rail_urban rail rail_electric rail_fast ship container cable_car subway aircraft wheelchair scooter drone" speed="8.33" length="0.29" shape="81.45,266.83 81.71,266.60"/>
    </edge>
    <edge id=":429728924_0" function="internal">
        <lane id=":429728924_0_0" index="0" disallow="tram rail_urban rail rail_electric rail_fast ship container cable_car subway aircraft wheelchair scooter drone" speed="8.33" length="0.53" shape="79.89,174.74 79.75,174.55 79.66,174.42 79.58,174.28 79.48,174.07"/>
        <lane id=":429728924_0_1" index="1" disallow="tram rail_urban rail rail_electric rail_fast ship container cable_car subway aircraft wheelchair scooter drone" speed="8.33" length="0.53" shape="82.46,172.84 82.42,172.78 82.39,172.73 82.36,172.69 82.32,172.62"/>
    </edge>
    <edge id=":429728994_0" function="internal">
        <lane id=":429728994_0_0" index="0" disallow="tram rail_urban rail rail_electric rail_fast ship container cable_car subway aircraft wheelchair scooter drone" speed="8.33" length="0.30" shape="102.79,234.80 103.02,234.60"/>
        <lane id=":429728994_0_1" index="1" disallow="tram rail_urban rail rail_electric rail_fast ship container cable_car subway aircraft wheelchair scooter drone" speed="8.33" length="0.30" shape="104.93,237.18 105.15,236.98"/>
        <lane id=":429728994_0_2" index="2" disallow="tram rail_urban rail rail_electric rail_fast ship container cable_car subway aircraft wheelchair scooter drone" speed="8.33" length="0.30" shape="107.07,239.56 107.29,239.36"/>
        <lane id=":429728994_0_3" index="3" disallow="tram rail_urban rail rail_electric rail_fast ship container cable_car subway aircraft wheelchair scooter drone" speed="8.33" length="0.30" shape="109.20,241.94 109.43,241.74"/>
    </edge>
    <edge id=":441029692_0" function="internal">
        <lane id=":441029692_0_0" index="0" disallow="tram rail_urban rail rail_electric rail_fast ship container cable_car subway aircraft wheelchair scooter drone" speed="8.33" length="0.30" shape="89.31,246.88 89.54,246.68"/>
        <lane id=":441029692_0_1" index="1" disallow="tram rail_urban rail rail_electric rail_fast ship container cable_car subway aircraft wheelchair scooter drone" speed="8.33" length="0.30" shape="91.45,249.26 91.67,249.06"/>
        <lane id=":441029692_0_2" index="2" disallow="tram rail_urban rail rail_electric rail_fast ship container cable_car subway aircraft wheelchair scooter drone" speed="8.33" length="0.30" shape="93.59,251.64 93.81,251.44"/>
        <lane id=":441029692_0_3" index="3" disallow="tram rail_urban rail rail_electric rail_fast ship container cable_car subway aircraft wheelchair scooter drone" speed="8.33" length="0.30" shape="95.72,254.02 95.95,253.82"/>
    </edge>
    <edge id=":441029693_0" function="internal">
        <lane id=":441029693_0_0" index="0" disallow="tram rail_urban rail rail_electric rail_fast ship container cable_car subway aircraft wheelchair scooter drone" speed="8.33" length="0.10" shape="162.30,326.54 162.37,326.49"/>
        <lane id=":441029693_0_1" index="1" disallow="tram rail_urban rail rail_electric rail_fast ship container cable_car subway aircraft wheelchair scooter drone" speed="8.33" length="0.10" shape="160.36,324.00 160.29,324.05"/>
    </edge>
    <edge id=":6862228907_0" function="internal">
        <lane id=":6862228907_0_0" index="0" disallow="tram rail_urban rail rail_electric rail_fast ship container cable_car subway aircraft wheelchair scooter drone" speed="8.33" length="0.30" shape="135.12,349.66 134.89,349.86"/>
        <lane id=":6862228907_0_1" index="1" disallow="tram rail_urban rail rail_electric rail_fast ship container cable_car subway aircraft wheelchair scooter drone" speed="8.33" length="0.30" shape="133.05,347.22 132.82,347.41"/>
    </edge>
    <edge id=":6862228910_0" function="internal">
        <lane id=":6862228910_0_0" index="0" disallow="tram rail_urban rail rail_electric rail_fast ship container cable_car subway aircraft wheelchair scooter drone" speed="8.33" length="0.30" shape="151.54,335.71 151.31,335.91"/>
        <lane id=":6862228910_0_1" index="1" disallow="tram rail_urban rail rail_electric rail_fast ship container cable_car subway aircraft wheelchair scooter drone" speed="8.33" length="0.30" shape="149.47,333.27 149.24,333.47"/>
    </edge>
    <edge id=":7721680907_0" function="internal">
        <lane id=":7721680907_0_0" index="0" disallow="pedestrian tram rail_urban rail rail_electric rail_fast ship container cable_car subway aircraft wheelchair scooter drone" speed="8.33" length="2.82" shape="128.12,212.08 126.00,213.98"/>
        <lane id=":7721680907_0_1" index="1" disallow="pedestrian tram rail_urban rail rail_electric rail_fast ship container cable_car subway aircraft wheelchair scooter drone" speed="8.33" length="2.82" shape="130.25,214.47 128.15,216.36"/>
        <lane id=":7721680907_0_2" index="2" disallow="pedestrian tram rail_urban rail rail_electric rail_fast ship container cable_car subway aircraft wheelchair scooter drone" speed="8.33" length="2.82" shape="132.38,216.85 130.29,218.73"/>
        <lane id=":7721680907_0_3" index="3" disallow="pedestrian tram rail_urban rail rail_electric rail_fast ship container cable_car subway aircraft wheelchair scooter drone" speed="8.33" length="2.82" shape="134.52,219.24 132.43,221.11"/>
    </edge>
    <edge id=":7721680923_0" function="internal">
        <lane id=":7721680923_0_0" index="0" disallow="tram rail_urban rail rail_electric rail_fast ship container cable_car subway aircraft wheelchair scooter drone" speed="8.33" length="1.20" shape="212.57,288.34 213.52,287.61"/>
        <lane id=":7721680923_0_1" index="1" disallow="tram rail_urban rail rail_electric rail_fast ship container cable_car subway aircraft wheelchair scooter drone" speed="8.33" length="1.20" shape="210.61,285.80 211.57,285.07"/>
    </edge>
    <edge id=":8026962784_0" function="internal">
        <lane id=":8026962784_0_0" index="0" disallow="tram rail_urban rail rail_electric rail_fast ship container cable_car subway aircraft wheelchair scooter drone" speed="8.33" length="0.27" shape="109.86,191.54 109.96,191.63"/>
        <lane id=":8026962784_0_1" index="1" disallow="tram rail_urban rail rail_electric rail_fast ship container cable_car subway aircraft wheelchair scooter drone" speed="8.33" length="0.27" shape="107.63,193.83 107.93,194.11"/>
    </edge>
    <edge id=":8315239808_0" function="internal">
        <lane id=":8315239808_0_0" index="0" disallow="tram rail_urban rail rail_electric rail_fast ship container cable_car subway aircraft wheelchair scooter drone" speed="8.33" length="0.10" shape="283.84,234.64 283.84,234.64"/>
        <lane id=":8315239808_0_1" index="1" disallow="tram rail_urban rail rail_electric rail_fast ship container cable_car subway aircraft wheelchair scooter drone" speed="8.33" length="0.10" shape="281.92,232.08 281.92,232.08"/>
    </edge>
    <edge id=":junction1_1_0" function="internal">
        <lane id=":junction1_1_0_0" index="0" disallow="tram rail_urban rail rail_electric rail_fast ship container cable_car subway aircraft wheelchair scooter drone" speed="7.45" length="10.04" shape="211.52,296.41 209.24,294.98 206.95,294.46 204.64,294.86 202.33,296.16"/>
    </edge>
    <edge id=":junction1_1_1" function="internal">
        <lane id=":junction1_1_1_0" index="0" disallow="tram rail_urban rail rail_electric rail_fast ship container cable_car subway aircraft wheelchair scooter drone" speed="8.33" length="14.27" shape="211.52,296.41 200.62,287.13"/>
        <lane id=":junction1_1_1_1" index="1" disallow="tram rail_urban rail rail_electric rail_fast ship container cable_car subway aircraft wheelchair scooter drone" speed="8.33" length="14.27" shape="213.56,293.94 202.73,284.72"/>
    </edge>
    <edge id=":junction1_1_3" function="internal">
        <lane id=":junction1_1_3_0" index="0" disallow="tram rail_urban rail rail_electric rail_fast ship container cable_car subway aircraft wheelchair scooter drone" speed="8.33" length="13.88" shape="213.36,287.73 202.33,296.16"/>
        <lane id=":junction1_1_3_1" index="1" disallow="tram rail_urban rail rail_electric rail_fast ship container cable_car subway aircraft wheelchair scooter drone" speed="8.33" length="13.88" shape="211.41,285.19 200.39,293.61"/>
    </edge>
    <edge id=":junction1_1_5" function="internal">
        <lane id=":junction1_1_5_0" index="0" disallow="tram rail_urban rail rail_electric rail_fast ship container cable_car subway aircraft wheelchair scooter drone" speed="7.18" length="9.54" shape="211.41,285.19 209.24,286.42 207.07,286.74 204.90,286.18 202.73,284.72"/>
    </edge>
    <edge id=":junction1_2_0" function="internal">
        <lane id=":junction1_2_0_0" index="0" disallow="tram rail_urban rail rail_electric rail_fast ship container cable_car subway aircraft wheelchair scooter drone" speed="6.07" length="9.07" shape="224.83,279.01 223.01,280.84 222.38,282.69 222.92,284.58 224.63,286.49"/>
    </edge>
    <edge id=":junction1_2_1" function="internal">
        <lane id=":junction1_2_1_0" index="0" disallow="tram rail_urban rail rail_electric rail_fast ship container cable_car subway aircraft wheelchair scooter drone" speed="8.33" length="15.22" shape="224.83,279.01 212.73,288.22"/>
        <lane id=":junction1_2_1_1" index="1" disallow="tram rail_urban rail rail_electric rail_fast ship container cable_car subway aircraft wheelchair scooter drone" speed="8.33" length="15.22" shape="222.91,276.46 210.77,285.68"/>
    </edge>
    <edge id=":junction1_2_3" function="internal">
        <lane id=":junction1_2_3_0" index="0" disallow="tram rail_urban rail rail_electric rail_fast ship container cable_car subway aircraft wheelchair scooter drone" speed="8.33" length="16.03" shape="212.31,276.22 224.63,286.49"/>
        <lane id=":junction1_2_3_1" index="1" disallow="tram rail_urban rail rail_electric rail_fast ship container cable_car subway aircraft wheelchair scooter drone" speed="8.33" length="16.03" shape="210.27,278.68 222.58,288.94"/>
    </edge>
    <edge id=":junction1_2_5" function="internal">
        <lane id=":junction1_2_5_0" index="0" disallow="tram rail_urban rail rail_electric rail_fast ship container cable_car subway aircraft wheelchair scooter drone" speed="5.90" length="8.47" shape="210.27,278.68 212.03,280.56 212.70,282.35 212.28,284.06 210.77,285.68"/>
    </edge>
    <edge id=":junction2_1_0" function="internal">
        <lane id=":junction2_1_0_0" index="0" disallow="tram rail_urban rail rail_electric rail_fast ship container cable_car subway aircraft wheelchair scooter drone" speed="8.33" length="17.03" shape="129.99,225.28 117.09,214.20"/>
        <lane id=":junction2_1_0_1" index="1" disallow="tram rail_urban rail rail_electric rail_fast ship container cable_car subway aircraft wheelchair scooter drone" speed="8.33" length="17.03" shape="132.10,222.87 119.16,211.76"/>
    </edge>
    <edge id=":junction2_1_2" function="internal">
        <lane id=":junction2_1_2_0" index="0" disallow="pedestrian tram rail_urban rail rail_electric rail_fast ship container cable_car subway aircraft wheelchair scooter drone" speed="5.57" length="6.91" shape="132.10,222.87 130.89,221.43 130.50,219.97 130.95,218.49 132.24,216.99"/>
        <lane id=":junction2_1_2_1" index="1" disallow="pedestrian tram rail_urban rail rail_electric rail_fast ship container cable_car subway aircraft wheelchair scooter drone" speed="4.63" length="4.44" shape="132.10,222.87 131.93,222.38 132.25,221.63 133.06,220.63 134.37,219.37"/>
    </edge>
    <edge id=":junction2_1_4" function="internal">
        <lane id=":junction2_1_4_0" index="0" disallow="tram rail_urban rail rail_electric rail_fast ship container cable_car subway aircraft wheelchair scooter drone" speed="6.23" length="9.05" shape="117.19,221.87 118.81,219.93 119.34,218.01 118.76,216.10 117.09,214.20"/>
    </edge>
    <edge id=":junction2_1_5" function="internal">
        <lane id=":junction2_1_5_0" index="0" disallow="pedestrian tram rail_urban rail rail_electric rail_fast ship container cable_car subway aircraft wheelchair scooter drone" speed="8.33" length="14.46" shape="117.19,221.87 127.97,212.22"/>
        <lane id=":junction2_1_5_1" index="1" disallow="pedestrian tram rail_urban rail rail_electric rail_fast ship container cable_car subway aircraft wheelchair scooter drone" speed="8.33" length="14.46" shape="119.33,224.25 130.10,214.60"/>
        <lane id=":junction2_1_5_2" index="2" disallow="pedestrian tram rail_urban rail rail_electric rail_fast ship container cable_car subway aircraft wheelchair scooter drone" speed="8.33" length="14.46" shape="121.47,226.63 132.24,216.99"/>
        <lane id=":junction2_1_5_3" index="3" disallow="pedestrian tram rail_urban rail rail_electric rail_fast ship container cable_car subway aircraft wheelchair scooter drone" speed="8.33" length="14.46" shape="123.61,229.02 134.37,219.37"/>
    </edge>
    <edge id=":junction2_2_0" function="internal">
        <lane id=":junction2_2_0_0" index="0" disallow="tram rail_urban rail rail_electric rail_fast ship container cable_car subway aircraft wheelchair scooter drone" speed="7.69" length="11.48" shape="126.91,205.47 129.71,207.26 132.38,207.94 134.91,207.51 137.30,205.97"/>
    </edge>
    <edge id=":junction2_2_1" function="internal">
        <lane id=":junction2_2_1_0" index="0" disallow="tram rail_urban rail rail_electric rail_fast ship container cable_car subway aircraft wheelchair scooter drone" speed="8.33" length="15.42" shape="126.91,205.47 138.85,215.26"/>
        <lane id=":junction2_2_1_1" index="1" disallow="tram rail_urban rail rail_electric rail_fast ship container cable_car subway aircraft wheelchair scooter drone" speed="8.33" length="15.42" shape="124.89,207.95 136.81,217.72"/>
    </edge>
    <edge id=":junction2_2_3" function="internal">
        <lane id=":junction2_2_3_0" index="0" disallow="pedestrian tram rail_urban rail rail_electric rail_fast ship container cable_car subway aircraft wheelchair scooter drone" speed="8.33" length="13.67" shape="126.15,213.85 129.32,211.33 131.72,209.91 134.13,208.48 137.30,205.97"/>
        <lane id=":junction2_2_3_1" index="1" disallow="pedestrian tram rail_urban rail rail_electric rail_fast ship container cable_car subway aircraft wheelchair scooter drone" speed="8.33" length="13.67" shape="128.29,216.22 131.46,213.71 133.86,212.29 136.27,210.86 139.44,208.36"/>
        <lane id=":junction2_2_3_2" index="2" disallow="pedestrian tram rail_urban rail rail_electric rail_fast ship container cable_car subway aircraft wheelchair scooter drone" speed="8.33" length="13.67" shape="130.44,218.60 133.60,216.09 136.00,214.67 138.41,213.25 141.58,210.74"/>
    </edge>
    <edge id=":junction2_2_6" function="internal">
        <lane id=":junction2_2_6_0" index="0" disallow="pedestrian tram rail_urban rail rail_electric rail_fast ship container cable_car subway aircraft wheelchair scooter drone" speed="5.50" length="5.47" shape="132.58,220.98 133.44,220.10 134.68,218.86 135.93,217.87 136.81,217.72"/>
    </edge>
    <edge id=":north_node_2_0" function="internal">
        <lane id=":north_node_2_0_0" index="0" disallow="tram rail_urban rail rail_electric rail_fast ship container cable_car subway aircraft wheelchair scooter drone" speed="8.33" length="0.10" shape="176.24,265.77 176.24,265.77"/>
        <lane id=":north_node_2_0_1" index="1" disallow="tram rail_urban rail rail_electric rail_fast ship container cable_car subway aircraft wheelchair scooter drone" speed="8.33" length="0.10" shape="178.34,263.37 178.34,263.37"/>
    </edge>
    <edge id=":south_node_2_0" function="internal">
        <lane id=":south_node_2_0_0" index="0" disallow="tram rail_urban rail rail_electric rail_fast ship container cable_car subway aircraft wheelchair scooter drone" speed="8.33" length="0.10" shape="277.80,331.05 277.80,331.05"/>
        <lane id=":south_node_2_0_1" index="1" disallow="tram rail_urban rail rail_electric rail_fast ship container cable_car subway aircraft wheelchair scooter drone" speed="8.33" length="0.10" shape="275.74,333.51 275.74,333.51"/>
    </edge>

    <edge id="1044370690" from="junction1_2" to="7721680923" priority="11" type="highway.secondary" spreadType="center">
        <lane id="1044370690_0" index="0" disallow="tram rail_urban rail rail_electric rail_fast ship container cable_car subway aircraft wheelchair scooter drone" speed="8.33" length="0.20" shape="212.73,288.22 212.57,288.34"/>
        <lane id="1044370690_1" index="1" disallow="tram rail_urban rail rail_electric rail_fast ship container cable_car subway aircraft wheelchair scooter drone" speed="8.33" length="0.20" shape="210.77,285.68 210.61,285.80"/>
    </edge>
    <edge id="1445469275" from="13261930124" to="13261930122" priority="1" type="highway.footway" spreadType="center" shape="129.19,222.45 133.09,219.13 136.92,215.74">
        <lane id="1445469275_0" index="0" allow="pedestrian" speed="2.78" length="0.46" width="2.00" shape="132.91,219.29 133.09,219.13 133.26,218.98"/>
    </edge>
    <edge id="23949304" from="junction2_1" to="7721680907" priority="11" type="highway.secondary" spreadType="center">
        <lane id="23949304_0" index="0" disallow="pedestrian tram rail_urban rail rail_electric rail_fast ship container cable_car subway aircraft wheelchair scooter drone" speed="8.33" length="0.20" shape="127.97,212.22 128.12,212.08"/>
        <lane id="23949304_1" index="1" disallow="pedestrian tram rail_urban rail rail_electric rail_fast ship container cable_car subway aircraft wheelchair scooter drone" speed="8.33" length="0.20" shape="130.10,214.60 130.25,214.47"/>
        <lane id="23949304_2" index="2" disallow="pedestrian tram rail_urban rail rail_electric rail_fast ship container cable_car subway aircraft wheelchair scooter drone" speed="8.33" length="0.20" shape="132.24,216.99 132.38,216.85"/>
        <lane id="23949304_3" index="3" disallow="pedestrian tram rail_urban rail rail_electric rail_fast ship container cable_car subway aircraft wheelchair scooter drone" speed="8.33" length="0.20" shape="134.37,219.37 134.52,219.24"/>
        <param key="ref" value="1"/>
    </edge>
    <edge id="328904433#0" from="junction2_2" to="13261930122" priority="12" type="highway.primary" spreadType="center">
        <lane id="328904433#0_0" index="0" disallow="tram rail_urban rail rail_electric rail_fast ship container cable_car subway aircraft wheelchair scooter drone" speed="8.33" length="0.20" shape="138.85,215.26 139.00,215.39"/>
        <lane id="328904433#0_1" index="1" disallow="tram rail_urban rail rail_electric rail_fast ship container cable_car subway aircraft wheelchair scooter drone" speed="8.33" length="0.20" shape="136.81,217.72 136.96,217.85"/>
        <param key="ref" value="920"/>
    </edge>
    <edge id="455556298#2" from="13261930124" to="junction2_1" priority="12" type="highway.primary" spreadType="center">
        <lane id="455556298#2_0" index="0" disallow="tram rail_urban rail rail_electric rail_fast ship container cable_car subway aircraft wheelchair scooter drone" speed="8.33" length="0.20" shape="130.14,225.41 129.99,225.28"/>
        <lane id="455556298#2_1" index="1" disallow="tram rail_urban rail rail_electric rail_fast ship container cable_car subway aircraft wheelchair scooter drone" speed="8.33" length="0.20" shape="132.25,223.00 132.10,222.87"/>
        <param key="ref" value="920"/>
    </edge>
    <edge id="827072229" from="7721680907" to="junction2_2" priority="11" type="highway.secondary" spreadType="center">
        <lane id="827072229_0" index="0" disallow="pedestrian tram rail_urban rail rail_electric rail_fast ship container cable_car subway aircraft wheelchair scooter drone" speed="8.33" length="0.20" shape="126.00,213.98 126.15,213.85"/>
        <lane id="827072229_1" index="1" disallow="pedestrian tram rail_urban rail rail_electric rail_fast ship container cable_car subway aircraft wheelchair scooter drone" speed="8.33" length="0.20" shape="128.15,216.36 128.29,216.22"/>
        <lane id="827072229_2" index="2" disallow="pedestrian tram rail_urban rail rail_electric rail_fast ship container cable_car subway aircraft wheelchair scooter drone" speed="8.33" length="0.20" shape="130.29,218.73 130.44,218.60"/>
        <lane id="827072229_3" index="3" disallow="pedestrian tram rail_urban rail rail_electric rail_fast ship container cable_car subway aircraft wheelchair scooter drone" speed="8.33" length="0.20" shape="132.43,221.11 132.58,220.98"/>
        <param key="ref" value="1"/>
    </edge>
    <edge id="827072277" from="7721680923" to="junction1_1" priority="11" type="highway.secondary" spreadType="center">
        <lane id="827072277_0" index="0" disallow="tram rail_urban rail rail_electric rail_fast ship container cable_car subway aircraft wheelchair scooter drone" speed="8.33" length="0.20" shape="213.52,287.61 213.36,287.73"/>
        <lane id="827072277_1" index="1" disallow="tram rail_urban rail rail_electric rail_fast ship container cable_car subway aircraft wheelchair scooter drone" speed="8.33" length="0.20" shape="211.57,285.07 211.41,285.19"/>
    </edge>
    <edge id="east_1" from="8315239808" to="junction1_2" priority="11" type="highway.secondary" spreadType="center">
        <lane id="east_1_0" index="0" disallow="tram rail_urban rail rail_electric rail_fast ship container cable_car subway aircraft wheelchair scooter drone" speed="8.33" length="73.83" shape="283.84,234.64 224.83,279.01"/>
        <lane id="east_1_1" index="1" disallow="tram rail_urban rail rail_electric rail_fast ship container cable_car subway aircraft wheelchair scooter drone" speed="8.33" length="73.83" shape="281.92,232.08 222.91,276.46"/>
    </edge>
    <edge id="east_2" from="junction1_1" to="441029693" priority="11" type="highway.secondary" spreadType="center" shape="207.01,290.60 185.39,307.01 161.33,325.27">
        <lane id="east_2_0" index="0" disallow="tram rail_urban rail rail_electric rail_fast ship container cable_car subway aircraft wheelchair scooter drone" speed="8.33" length="50.25" shape="202.33,296.16 186.36,308.28 162.30,326.54"/>
        <lane id="east_2_1" index="1" disallow="tram rail_urban rail rail_electric rail_fast ship container cable_car subway aircraft wheelchair scooter drone" speed="8.33" length="50.25" shape="200.39,293.61 184.42,305.74 160.36,324.00"/>
    </edge>
    <edge id="east_3" from="441029693" to="6862228910" priority="11" type="highway.secondary" spreadType="center">
        <lane id="east_3_0" index="0" disallow="tram rail_urban rail rail_electric rail_fast ship container cable_car subway aircraft wheelchair scooter drone" speed="8.33" length="14.22" shape="162.37,326.49 151.54,335.71"/>
        <lane id="east_3_1" index="1" disallow="tram rail_urban rail rail_electric rail_fast ship container cable_car subway aircraft wheelchair scooter drone" speed="8.33" length="14.22" shape="160.29,324.05 149.47,333.27"/>
    </edge>
    <edge id="east_4" from="6862228910" to="6862228907" priority="11" type="highway.secondary" spreadType="center">
        <lane id="east_4_0" index="0" disallow="tram rail_urban rail rail_electric rail_fast ship container cable_car subway aircraft wheelchair scooter drone" speed="8.33" length="21.25" shape="151.31,335.91 135.12,349.66"/>
        <lane id="east_4_1" index="1" disallow="tram rail_urban rail rail_electric rail_fast ship container cable_car subway aircraft wheelchair scooter drone" speed="8.33" length="21.25" shape="149.24,333.47 133.05,347.22"/>
    </edge>
    <edge id="east_end" from="6862228907" to="wew" priority="11" type="highway.secondary" spreadType="center" shape="133.97,348.54 116.23,363.49 108.68,370.68 99.06,380.55">
        <lane id="east_end_0" index="0" disallow="tram rail_urban rail rail_electric rail_fast ship container cable_car subway aircraft wheelchair scooter drone" speed="8.33" length="47.26" shape="134.89,349.86 117.30,364.68 109.80,371.82 100.21,381.67"/>
        <lane id="east_end_1" index="1" disallow="tram rail_urban rail rail_electric rail_fast ship container cable_car subway aircraft wheelchair scooter drone" speed="8.33" length="47.26" shape="132.82,347.41 115.16,362.30 107.56,369.54 97.91,379.43"/>
    </edge>
    <edge id="east_start" from="4519462253" to="8315239808" priority="11" type="highway.secondary" spreadType="center">
        <lane id="east_start_0" index="0" disallow="tram rail_urban rail rail_electric rail_fast ship container cable_car subway aircraft wheelchair scooter drone" speed="8.33" length="30.67" shape="308.36,216.21 283.84,234.64"/>
        <lane id="east_start_1" index="1" disallow="tram rail_urban rail rail_electric rail_fast ship container cable_car subway aircraft wheelchair scooter drone" speed="8.33" length="30.67" shape="306.44,213.65 281.92,232.08"/>
    </edge>
    <edge id="north_1" from="8026962784" to="junction2_2" priority="12" type="highway.primary" spreadType="center">
        <lane id="north_1_0" index="0" disallow="tram rail_urban rail rail_electric rail_fast ship container cable_car subway aircraft wheelchair scooter drone" speed="8.33" length="21.89" shape="109.96,191.63 126.91,205.47"/>