<?xml version="1.0" encoding="UTF-8"?>

<!-- generated on 2025-11-23 07:46:02 by Eclipse SUMO netconvert Version 1.18.0
<configuration xmlns:xsi="http://www.w3.org/2001/XMLSchema-instance" xsi:noNamespaceSchemaLocation="http://sumo.dlr.de/xsd/netconvertConfiguration.xsd">

    <input>
        <node-files value="/home/wetcatto/.code/machine-learning-le/plain.nod.xml"/>
        <edge-files value="/home/wetcatto/.code/machine-learning-le/plain.edg.xml"/>
        <connection-files value="/home/wetcatto/.code/machine-learning-le/plain.con.xml"/>
    </input>

    <output>
        <output-file value="/home/wetcatto/.code/machine-learning-le/single_intersection.net.xml"/>
    </output>

    <tls_building>
        <tls.yellow.time value="3"/>
    </tls_building>

    <junctions>
        <no-turnarounds value="true"/>
        <no-turnarounds.tls value="true"/>
    </junctions>

</configuration>
-->

<net version="1.16" junctionCornerDetail="5" limitTurnSpeed="5.50" xmlns:xsi="http://www.w3.org/2001/XMLSchema-instance" xsi:noNamespaceSchemaLocation="http://sumo.dlr.de/xsd/net_file.xsd">

    <location netOffset="0.00,0.00" convBoundary="0.00,0.00,200.00,200.00" origBoundary="0.00,0.00,200.00,200.00" projParameter="!"/>

    <edge id=":A1_div_0" function="internal">
        <lane id=":A1_div_0_0" index="0" speed="7.11" length="4.40" shape="53.42,92.00 54.53,91.90 55.57,91.59 56.51,91.08 57.38,90.36"/>
    </edge>
    <edge id=":A1_div_1" function="internal">
        <lane id=":A1_div_1_0" index="0" speed="13.89" length="4.64" shape="53.42,95.20 58.06,95.20"/>
        <lane id=":A1_div_1_1" index="1" speed="13.89" length="4.64" shape="53.42,98.40 58.06,98.40"/>
    </edge>
    <edge id=":B0_merge_0" function="internal">
        <lane id=":B0_merge_0_0" index="0" speed="13.89" length="11.59" shape="92.00,54.00 92.50,50.61 93.60,48.40 94.70,46.19 95.20,42.80"/>
        <lane id=":B0_merge_0_1" index="1" speed="13.89" length="11.59" shape="95.20,54.00 95.70,50.61 96.80,48.40 97.90,46.19 98.40,42.80"/>
        <lane id=":B0_merge_0_2" index="2" speed="13.89" length="11.59" shape="98.40,54.00 98.40,42.80"/>
    </edge>
    <edge id=":B0_merge_3" function="internal">
        <lane id=":B0_merge_3_0" index="0" speed="13.89" length="11.20" shape="108.00,42.80 108.00,54.00"/>
        <lane id=":B0_merge_3_1" index="1" speed="13.89" length="11.20" shape="104.80,42.80 104.80,54.00"/>
        <lane id=":B0_merge_3_2" index="2" speed="13.89" length="11.20" shape="101.60,42.80 101.60,54.00"/>
    </edge>
    <edge id=":B0_merge_6" function="internal">
        <lane id=":B0_merge_6_0" index="0" speed="10.05" length="9.20" shape="87.26,50.48 89.33,48.22 90.82,46.19 91.70,44.38 92.00,42.80"/>
    </edge>
    <edge id=":B1_0" function="internal">
        <lane id=":B1_0_0" index="0" speed="6.51" length="9.03" shape="92.00,113.60 91.65,111.15 90.60,109.40 88.85,108.35 86.40,108.00"/>
    </edge>
    <edge id=":B1_1" function="internal">
        <lane id=":B1_1_0" index="0" speed="13.89" length="27.20" shape="95.20,113.60 95.20,86.40"/>
        <lane id=":B1_1_1" index="1" speed="13.89" length="27.20" shape="98.40,113.60 98.40,86.40"/>
    </edge>
    <edge id=":B1_3" function="internal">
        <lane id=":B1_3_0" index="0" speed="10.36" length="12.07" shape="98.40,113.60 99.35,106.95 102.10,102.36"/>
    </edge>
    <edge id=":B1_16" function="internal">
        <lane id=":B1_16_0" index="0" speed="10.36" length="12.44" shape="102.10,102.36 102.20,102.20 106.95,99.35 113.60,98.40"/>
    </edge>
    <edge id=":B1_4" function="internal">
        <lane id=":B1_4_0" index="0" speed="11.87" length="16.92" shape="113.60,108.00 106.47,105.88 99.47,100.53 99.06,100.00"/>
    </edge>
    <edge id=":B1_5" function="internal">
        <lane id=":B1_5_0" index="0" speed="13.89" length="27.20" shape="113.60,104.80 86.40,104.80"/>
    </edge>
    <edge id=":B1_6" function="internal">
        <lane id=":B1_6_0" index="0" speed="8.67" length="3.71" shape="113.60,101.60 109.96,102.31"/>
    </edge>
    <edge id=":B1_7" function="internal">
        <lane id=":B1_7_0" index="0" speed="13.89" length="27.20" shape="113.60,101.60 86.40,101.60"/>
    </edge>
    <edge id=":B1_17" function="internal">
        <lane id=":B1_17_0" index="0" speed="11.87" length="15.58" shape="99.06,100.00 94.12,93.53 92.00,86.40"/>
    </edge>
    <edge id=":B1_18" function="internal">
        <lane id=":B1_18_0" index="0" speed="8.67" length="13.14" shape="109.96,102.31 109.75,102.35 107.00,104.60 105.35,108.35 104.80,113.60"/>
    </edge>
    <edge id=":B1_8" function="internal">
        <lane id=":B1_8_0" index="0" speed="13.89" length="27.20" shape="108.00,86.40 108.00,113.60"/>
    </edge>
    <edge id=":B1_9" function="internal">
        <lane id=":B1_9_0" index="0" speed="8.00" length="4.07" shape="104.80,86.40 105.35,90.25 105.44,90.40"/>
    </edge>
    <edge id=":B1_10" function="internal">
        <lane id=":B1_10_0" index="0" speed="13.89" length="27.20" shape="104.80,86.40 104.80,113.60"/>
    </edge>
    <edge id=":B1_11" function="internal">
        <lane id=":B1_11_0" index="0" speed="10.36" length="5.01" shape="101.60,86.40 100.89,91.36"/>
    </edge>
    <edge id=":B1_19" function="internal">
        <lane id=":B1_19_0" index="0" speed="8.00" length="10.13" shape="105.44,90.40 107.00,93.00 109.75,94.65 113.60,95.20"/>
    </edge>
    <edge id=":B1_20" function="internal">
        <lane id=":B1_20_0" index="0" speed="10.36" length="19.50" shape="100.89,91.36 100.65,93.05 97.80,97.80 93.05,100.65 86.40,101.60"/>
    </edge>
    <edge id=":B1_12" function="internal">
        <lane id=":B1_12_0" index="0" speed="8.00" length="14.19" shape="86.40,95.20 90.25,94.65 93.00,93.00 94.65,90.25 95.20,86.40"/>
    </edge>
    <edge id=":B1_13" function="internal">
        <lane id=":B1_13_0" index="0" speed="13.89" length="27.20" shape="86.40,95.20 113.60,95.20"/>
        <lane id=":B1_13_1" index="1" speed="13.89" length="27.20" shape="86.40,98.40 113.60,98.40"/>
    </edge>
    <edge id=":B1_15" function="internal">
        <lane id=":B1_15_0" index="0" speed="10.60" length="3.51" shape="86.40,98.40 89.83,99.12"/>
    </edge>
    <edge id=":B1_21" function="internal">
        <lane id=":B1_21_0" index="0" speed="10.60" length="22.19" shape="89.83,99.12 92.63,99.71 98.58,103.15 103.04,108.02 104.80,113.60"/>
    </edge>

    <edge id="A1_A1div" from="A1" to="A1_div" priority="-1">
        <lane id="A1_A1div_0" index="0" speed="13.89" length="53.42" shape="0.00,92.00 53.42,92.00"/>
        <lane id="A1_A1div_1" index="1" speed="13.89" length="53.42" shape="0.00,95.20 53.42,95.20"/>
        <lane id="A1_A1div_2" index="2" speed="13.89" length="53.42" shape="0.00,98.40 53.42,98.40"/>
    </edge>
    <edge id="A1div_B1" from="A1_div" to="B1" priority="-1">
        <lane id="A1div_B1_0" index="0" speed="13.89" length="28.34" shape="58.06,95.20 86.40,95.20"/>
        <lane id="A1div_B1_1" index="1" speed="13.89" length="28.34" shape="58.06,98.40 86.40,98.40"/>
    </edge>
    <edge id="B0_B0merge" from="B0" to="B0_merge" priority="-1">
        <lane id="B0_B0merge_0" index="0" speed="13.89" length="42.80" shape="108.00,0.00 108.00,42.80"/>
        <lane id="B0_B0merge_1" index="1" speed="13.89" length="42.80" shape="104.80,0.00 104.80,42.80"/>
        <lane id="B0_B0merge_2" index="2" speed="13.89" length="42.80" shape="101.60,0.00 101.60,42.80"/>
    </edge>
    <edge id="B0merge_B0" from="B0_merge" to="B0" priority="-1">
        <lane id="B0merge_B0_0" index="0" speed="13.89" length="42.80" shape="92.00,42.80 92.00,0.00"/>
        <lane id="B0merge_B0_1" index="1" speed="13.89" length="42.80" shape="95.20,42.80 95.20,0.00"/>
        <lane id="B0merge_B0_2" index="2" speed="13.89" length="42.80" shape="98.40,42.80 98.40,0.00"/>
    </edge>
    <edge id="B0merge_B1" from="B0_merge" to="B1" priority="-1">
        <lane id="B0merge_B1_0" index="0" speed="13.89" length="32.40" shape="108.00,54.00 108.00,86.40"/>
        <lane id="B0merge_B1_1" index="1" speed="13.89" length="32.40" shape="104.80,54.00 104.80,86.40"/>
        <lane id="B0merge_B1_2" index="2" speed="13.89" length="32.40" shape="101.60,54.00 101.60,86.40"/>
    </edge>
    <edge id="B1A1" from="B1" to="A1" priority="-1">
        <lane id="B1A1_0" index="0" speed="13.89" length="86.40" shape="86.40,108.00 0.00,108.00"/>
        <lane id="B1A1_1" index="1" speed="13.89" length="86.40" shape="86.40,104.80 0.00,104.80"/>
        <lane id="B1A1_2" index="2" speed="13.89" length="86.40" shape="86.40,101.60 0.00,101.60"/>
    </edge>
    <edge id="B1B2" from="B1" to="B2" priority="-1">
        <lane id="B1B2_0" index="0" speed="13.89" length="86.40" shape="108.00,113.60 108.00,200.00"/>
        <lane id="B1B2_1" index="1" speed="13.89" length="86.40" shape="104.80,113.60 104.80,200.00"/>
        <lane id="B1B2_2" index="2" speed="13.89" length="86.40" shape="101.60,113.60 101.60,200.00"/>
    </edge>
    <edge id="B1C1" from="B1" to="C1" priority="-1">
        <lane id="B1C1_0" index="0" speed="13.89" length="86.40" shape="113.60,92.00 200.00,92.00"/>
        <lane id="B1C1_1" index="1" speed="13.89" length="86.40" shape="113.60,95.20 200.00,95.20"/>
        <lane id="B1C1_2" index="2" speed="13.89" length="86.40" shape="113.60,98.40 200.00,98.40"/>
    </edge>
    <edge id="B1_B0merge" from="B1" to="B0_merge" priority="-1">
        <lane id="B1_B0merge_0" index="0" speed="13.89" length="32.40" shape="92.00,86.40 92.00,54.00"/>
        <lane id="B1_B0merge_1" index="1" speed="13.89" length="32.40" shape="95.20,86.40 95.20,54.00"/>
        <lane id="B1_B0merge_2" index="2" speed="13.89" length="32.40" shape="98.40,86.40 98.40,54.00"/>
    </edge>
    <edge id="B2B1" from="B2" to="B1" priority="-1">
        <lane id="B2B1_0" index="0" speed="13.89" length="86.40" shape="92.00,200.00 92.00,113.60"/>
        <lane id="B2B1_1" index="1" speed="13.89" length="86.40" shape="95.20,200.00 95.20,113.60"/>
        <lane id="B2B1_2" index="2" speed="13.89" length="86.40" shape="98.40,200.00 98.40,113.60"/>
    </edge>
    <edge id="C1B1" from="C1" to="B1" priority="-1">
        <lane id="C1B1_0" index="0" speed="13.89" length="86.40" shape="200.00,108.00 113.60,108.00"/>
        <lane id="C1B1_1" index="1" speed="13.89" length="86.40" shape="200.00,104.80 113.60,104.80"/>
        <lane id="C1B1_2" index="2" speed="13.89" length="86.40" shape="200.00,101.60 113.60,101.60"/>
    </edge>
    <edge id="slip_W2S" from="A1_div" to="B0_merge" priority="-1" shape="50.00,100.00 60.00,90.00 80.00,60.00 90.00,50.00 100.00,50.00">
        <lane id="slip_W2S_0" index="0" speed="10.00" length="50.03" shape="57.38,90.36 58.76,88.98 78.76,58.98 87.26,50.48"/>
    </edge>

    <tlLogic id="B1" type="static" programID="0" offset="0">
        <phase duration="38" state="GGGgrrrrGgGgrrrr"/>
        <phase duration="3"  state="yyygrrrryyygrrrr"/>
        <phase duration="6"  state="rrrGrrrrrrrGrrrr"/>
        <phase duration="3"  state="rrryrrrrrrryrrrr"/>
        <phase duration="37" state="rrrrgGgGrrrrGGGg"/>
        <phase duration="3"  state="rrrryyyyrrrryyyy"/>
    </tlLogic>

    <junction id="A1" type="dead_end" x="0.00" y="100.00" incLanes="B1A1_0 B1A1_1 B1A1_2" intLanes="" shape="0.00,100.00 0.00,109.60 0.00,100.00"/>
    <junction id="A1_div" type="priority" x="50.00" y="100.00" incLanes="A1_A1div_0 A1_A1div_1 A1_A1div_2" intLanes=":A1_div_0_0 :A1_div_1_0 :A1_div_1_1" shape="58.06,100.00 58.06,93.60 57.37,93.37 57.34,93.07 57.52,92.66 57.91,92.14 58.51,91.49 56.25,89.23 55.41,89.88 54.95,90.11 54.47,90.27 53.96,90.37 53.42,90.40 53.42,100.00">
        <request index="0" response="000" foes="000" cont="0"/>
        <request index="1" response="000" foes="000" cont="0"/>
        <request index="2" response="000" foes="000" cont="0"/>
    </junction>
    <junction id="B0" type="dead_end" x="100.00" y="0.00" incLanes="B0merge_B0_0 B0merge_B0_1 B0merge_B0_2" intLanes="" shape="100.00,0.00 90.40,0.00 100.00,0.00"/>
    <junction id="B0_merge" type="priority" x="100.00" y="50.00" incLanes="B1_B0merge_0 B1_B0merge_1 B1_B0merge_2 B0_B0merge_0 B0_B0merge_1 B0_B0merge_2 slip_W2S_0" intLanes=":B0_merge_0_0 :B0_merge_0_1 :B0_merge_0_2 :B0_merge_3_0 :B0_merge_3_1 :B0_merge_3_2 :B0_merge_6_0" shape="90.40,54.00 109.60,54.00 109.60,42.80 90.40,42.80 90.03,44.43 89.57,45.34 88.92,46.30 88.08,47.33 87.07,48.41 87.45,52.55 89.09,51.40 89.66,51.44 90.07,51.88 90.32,52.74">
        <request index="0" response="0000000" foes="0000000" cont="0"/>
        <request index="1" response="0000100" foes="0000100" cont="0"/>
        <request index="2" response="0000000" foes="0000010" cont="0"/>
        <request index="3" response="0000000" foes="0000000" cont="0"/>
        <request index="4" response="0000000" foes="0000000" cont="0"/>
        <request index="5" response="0000000" foes="0000000" cont="0"/>
        <request index="6" response="0000000" foes="0000000" cont="0"/>
    </junction>
    <junction id="B1" type="traffic_light" x="100.00" y="100.00" incLanes="B2B1_0 B2B1_1 B2B1_2 C1B1_0 C1B1_1 C1B1_2 B0merge_B1_0 B0merge_B1_1 B0merge_B1_2 A1div_B1_0 A1div_B1_1" intLanes=":B1_0_0 :B1_1_0 :B1_1_1 :B1_16_0 :B1_17_0 :B1_5_0 :B1_18_0 :B1_7_0 :B1_8_0 :B1_19_0 :B1_10_0 :B1_20_0 :B1_12_0 :B1_13_0 :B1_13_1 :B1_21_0" shape="90.40,113.60 109.60,113.60 110.04,111.38 110.60,110.60 111.38,110.04 112.38,109.71 113.60,109.60 113.60,90.40 111.38,89.96 110.60,89.40 110.04,88.62 109.71,87.62 109.60,86.40 90.40,86.40 90.29,88.60 89.96,90.40 89.40,91.80 88.62,92.80 87.62,93.40 86.40,93.60 86.40,109.60 88.62,110.04 89.40,110.60 89.96,111.38 90.29,112.38">
        <request index="0"  response="0000000000000000" foes="0000000000000000" cont="0"/>
        <request index="1"  response="1000000000010000" foes="1111100010110000" cont="0"/>
        <request index="2"  response="1000000000010000" foes="1111100010110000" cont="0"/>
        <request index="3"  response="1000010100010000" foes="1110010110110000" cont="1"/>
        <request index="4"  response="0111110110101110" foes="0111110111101110" cont="1"/>
        <request index="5"  response="0000110100001110" foes="1000110101011110" cont="0"/>
        <request index="6"  response="0000010100110000" foes="1000010100110000" cont="1"/>
        <request index="7"  response="0000110100001110" foes="1000110100011110" cont="0"/>
        <request index="8"  response="1000000001010000" foes="1110001011111000" cont="0"/>
        <request index="9"  response="0000000100000000" foes="0110000100000000" cont="1"/>
        <request index="10" response="1000000001010000" foes="1110000011111000" cont="0"/>
        <request index="11" response="1000000000010110" foes="1110000010110110" cont="1"/>
        <request index="12" response="0000000000000110" foes="0000000000010110" cont="0"/>
        <request index="13" response="0000111100001110" foes="0000111100011110" cont="0"/>
        <request index="14" response="0000111100001110" foes="0000111100011110" cont="0"/>
        <request index="15" response="0000110111101110" foes="0000110111101110" cont="1"/>
    </junction>
    <junction id="B2" type="dead_end" x="100.00" y="200.00" incLanes="B1B2_0 B1B2_1 B1B2_2" intLanes="" shape="100.00,200.00 109.60,200.00 100.00,200.00"/>
    <junction id="C1" type="dead_end" x="200.00" y="100.00" incLanes="B1C1_0 B1C1_1 B1C1_2" intLanes="" shape="200.00,100.00 200.00,90.40 200.00,100.00"/>

    <junction id=":B1_16_0" type="internal" x="102.10" y="102.36" incLanes=":B1_3_0 B0merge_B1_0 B0merge_B1_1" intLanes=":B1_4_0 :B1_5_0 :B1_7_0 :B1_8_0 :B1_9_0 :B1_10_0 :B1_13_0 :B1_13_1 :B1_15_0"/>
    <junction id=":B1_17_0" type="internal" x="99.06" y="100.00" incLanes=":B1_4_0 A1div_B1_0 A1div_B1_1" intLanes=":B1_1_0 :B1_1_1 :B1_3_0 :B1_5_0 :B1_7_0 :B1_8_0 :B1_10_0 :B1_11_0 :B1_12_0 :B1_13_0 :B1_13_1"/>
    <junction id=":B1_18_0" type="internal" x="109.96" y="102.31" incLanes=":B1_6_0 C1B1_1" intLanes=":B1_4_0 :B1_5_0 :B1_8_0 :B1_10_0 :B1_15_0"/>
    <junction id=":B1_19_0" type="internal" x="105.44" y="90.40" incLanes=":B1_9_0 B0merge_B1_0" intLanes=":B1_3_0 :B1_8_0 :B1_13_0 :B1_13_1"/>
    <junction id=":B1_20_0" type="internal" x="100.89" y="91.36" incLanes=":B1_11_0 B2B1_0 B2B1_1 B2B1_2" intLanes=":B1_0_0 :B1_1_0 :B1_1_1 :B1_4_0 :B1_5_0 :B1_7_0 :B1_13_0 :B1_13_1 :B1_15_0"/>
    <junction id=":B1_21_0" type="internal" x="89.83" y="99.12" incLanes=":B1_15_0 C1B1_1 C1B1_2" intLanes=":B1_1_0 :B1_1_1 :B1_3_0 :B1_5_0 :B1_6_0 :B1_7_0 :B1_8_0 :B1_10_0 :B1_11_0"/>

    <connection from="A1_A1div" to="slip_W2S" fromLane="0" toLane="0" via=":A1_div_0_0" dir="r" state="M"/>
    <connection from="A1_A1div" to="A1div_B1" fromLane="1" toLane="0" via=":A1_div_1_0" dir="s" state="M"/>
    <connection from="A1_A1div" to="A1div_B1" fromLane="2" toLane="1" via=":A1_div_1_1" dir="s" state="M"/>
    <connection from="A1div_B1" to="B1_B0merge" fromLane="0" toLane="1" via=":B1_12_0" tl="B1" linkIndex="12" dir="r" state="o"/>
    <connection from="A1div_B1" to="B1C1" fromLane="0" toLane="1" via=":B1_13_0" tl="B1" linkIndex="13" dir="s" state="o"/>
    <connection from="A1div_B1" to="B1C1" fromLane="1" toLane="2" via=":B1_13_1" tl="B1" linkIndex="14" dir="s" state="o"/>
    <connection from="A1div_B1" to="B1B2" fromLane="1" toLane="1" via=":B1_15_0" tl="B1" linkIndex="15" dir="l" state="o"/>
    <connection from="B0_B0merge" to="B0merge_B1" fromLane="0" toLane="0" via=":B0_merge_3_0" dir="s" state="M"/>
    <connection from="B0_B0merge" to="B0merge_B1" fromLane="1" toLane="1" via=":B0_merge_3_1" dir="s" state="M"/>
    <connection from="B0_B0merge" to="B0merge_B1" fromLane="2" toLane="2" via=":B0_merge_3_2" dir="s" state="M"/>
    <connection from="B0merge_B1" to="B1B2" fromLane="0" toLane="0" via=":B1_8_0" tl="B1" linkIndex="8" dir="s" state="O"/>
    <connection from="B0merge_B1" to="B1C1" fromLane="1" toLane="1" via=":B1_9_0" tl="B1" linkIndex="9" dir="r" state="o"/>
    <connection from="B0merge_B1" to="B1B2" fromLane="1" toLane="1" via=":B1_10_0" tl="B1" linkIndex="10" dir="s" state="O"/>
    <connection from="B0merge_B1" to="B1A1" fromLane="2" toLane="2" via=":B1_11_0" tl="B1" linkIndex="11" dir="l" state="o"/>
    <connection from="B1_B0merge" to="B0merge_B0" fromLane="0" toLane="1" via=":B0_merge_0_0" dir="s" state="M"/>
    <connection from="B1_B0merge" to="B0merge_B0" fromLane="1" toLane="2" via=":B0_merge_0_1" dir="s" state="m"/>
    <connection from="B1_B0merge" to="B0merge_B0" fromLane="2" toLane="2" via=":B0_merge_0_2" dir="s" state="M"/>
    <connection from="B2B1" to="B1A1" fromLane="0" toLane="0" pass="1" via=":B1_0_0" tl="B1" linkIndex="0" dir="r" state="O"/>
    <connection from="B2B1" to="B1_B0merge" fromLane="1" toLane="1" via=":B1_1_0" tl="B1" linkIndex="1" dir="s" state="O"/>
    <connection from="B2B1" to="B1_B0merge" fromLane="2" toLane="2" via=":B1_1_1" tl="B1" linkIndex="2" dir="s" state="O"/>
    <connection from="B2B1" to="B1C1" fromLane="2" toLane="2" via=":B1_3_0" tl="B1" linkIndex="3" dir="l" state="o"/>
    <connection from="C1B1" to="B1_B0merge" fromLane="0" toLane="0" via=":B1_4_0" tl="B1" linkIndex="4" dir="l" state="o"/>
    <connection from="C1B1" to="B1A1" fromLane="1" toLane="1" via=":B1_5_0" tl="B1" linkIndex="5" dir="s" state="o"/>
    <connection from="C1B1" to="B1B2" fromLane="2" toLane="1" via=":B1_6_0" tl="B1" linkIndex="6" dir="r" state="o"/>
    <connection from="C1B1" to="B1A1" fromLane="2" toLane="2" via=":B1_7_0" tl="B1" linkIndex="7" dir="s" state="o"/>
    <connection from="slip_W2S" to="B0merge_B0" fromLane="0" toLane="0" via=":B0_merge_6_0" dir="r" state="M"/>

    <connection from=":A1_div_0" to="slip_W2S" fromLane="0" toLane="0" dir="r" state="M"/>
    <connection from=":A1_div_1" to="A1div_B1" fromLane="0" toLane="0" dir="s" state="M"/>
    <connection from=":A1_div_1" to="A1div_B1" fromLane="1" toLane="1" dir="s" state="M"/>
    <connection from=":B0_merge_0" to="B0merge_B0" fromLane="0" toLane="1" dir="s" state="M"/>
    <connection from=":B0_merge_0" to="B0merge_B0" fromLane="1" toLane="2" dir="s" state="M"/>
    <connection from=":B0_merge_0" to="B0merge_B0" fromLane="2" toLane="2" dir="s" state="M"/>
    <connection from=":B0_merge_3" to="B0merge_B1" fromLane="0" toLane="0" dir="s" state="M"/>
    <connection from=":B0_merge_3" to="B0merge_B1" fromLane="1" toLane="1" dir="s" state="M"/>
    <connection from=":B0_merge_3" to="B0merge_B1" fromLane="2" toLane="2" dir="s" state="M"/>
    <connection from=":B0_merge_6" to="B0merge_B0" fromLane="0" toLane="0" dir="r" state="M"/>
    <connection from=":B1_0" to="B1A1" fromLane="0" toLane="0" dir="r" state="M"/>
    <connection from=":B1_1" to="B1_B0merge" fromLane="0" toLane="1" dir="s" state="M"/>
    <connection from=":B1_1" to="B1_B0merge" fromLane="1" toLane="2" dir="s" state="M"/>
    <connection from=":B1_3" to="B1C1" fromLane="0" toLane="2" via=":B1_16_0" dir="l" state="m"/>
    <connection from=":B1_16" to="B1C1" fromLane="0" toLane="2" dir="l" state="M"/>
    <connection from=":B1_4" to="B1_B0merge" fromLane="0" toLane="0" via=":B1_17_0" dir="l" state="m"/>
    <connection from=":B1_17" to="B1_B0merge" fromLane="0" toLane="0" dir="l" state="M"/>
    <connection from=":B1_5" to="B1A1" fromLane="0" toLane="1" dir="s" state="M"/>
    <connection from=":B1_6" to="B1B2" fromLane="0" toLane="1" via=":B1_18_0" dir="r" state="m"/>
    <connection from=":B1_18" to="B1B2" fromLane="0" toLane="1" dir="r" state="M"/>
    <connection from=":B1_7" to="B1A1" fromLane="0" toLane="2" dir="s" state="M"/>
    <connection from=":B1_8" to="B1B2" fromLane="0" toLane="0" dir="s" state="M"/>
    <connection from=":B1_9" to="B1C1" fromLane="0" toLane="1" via=":B1_19_0" dir="r" state="m"/>
    <connection from=":B1_19" to="B1C1" fromLane="0" toLane="1" dir="r" state="M"/>
    <connection from=":B1_10" to="B1B2" fromLane="0" toLane="1" dir="s" state="M"/>
    <connection from=":B1_11" to="B1A1" fromLane="0" toLane="2" via=":B1_20_0" dir="l" state="m"/>
    <connection from=":B1_20" to="B1A1" fromLane="0" toLane="2" dir="l" state="M"/>
    <connection from=":B1_12" to="B1_B0merge" fromLane="0" toLane="1" dir="r" state="M"/>
    <connection from=":B1_13" to="B1C1" fromLane="0" toLane="1" dir="s" state="M"/>
    <connection from=":B1_13" to="B1C1" fromLane="1" toLane="2" dir="s" state="M"/>
    <connection from=":B1_15" to="B1B2" fromLane="0" toLane="1" via=":B1_21_0" dir="l" state="m"/>
    <connection from=":B1_21" to="B1B2" fromLane="0" toLane="1" dir="l" state="M"/>

</net>
