<routes>
    <route id="N_to_N" edges="north_start north_1 328904433#0 north_2 north_3 north_end"/>
    <route id="S_to_S" edges="south_start south_1 south_2 455556298#2 south_3 south_end"/>
    <route id="E_to_E" edges="east_start east_1 1044370690 827072277 east_2 east_3 east_4 east_end"/>
    <route id="W_to_W" edges="west_start west_1 west_2 west_3 23949304 827072229 west_4 west_end"/>

    <route id="W_to_N" edges="west_start west_1 west_2 west_3 23949304 827072229 328904433#0 north_2 north_3 north_end"/>
    <route id="E_to_S" edges="east_start east_1 1044370690 827072277 south_1 south_2 455556298#2 south_3 south_end"/>
    <route id="S_to_W" edges="south_start south_1 south_2 455556298#2 23949304 827072229 west_4 west_end"/>
    <route id="N_to_E" edges="north_start north_1 328904433#0 north_2 1044370690 827072277 east_2 east_3 east_4 east_end"/>

    <flow id="n_n_0" route="N_to_N" type="realdistribution" begin="0" end="3600" number="256"/>
    <flow id="n_e_0" route="N_to_E" type="realdistribution" begin="0" end="3600" number="28"/>
    <flow id="s_s_0" route="S_to_S" type="realdistribution" begin="0" end="3600" number="263"/>
    <flow id="s_w_0" route="S_to_W" type="realdistribution" begin="0" end="3600" number="29"/>
    <flow id="e_e_0" route="E_to_E" type="realdistribution" begin="0" end="3600" number="64"/>
    <flow id="e_s_0" route="E_to_S" type="realdistribution" begin="0" end="3600" number="7"/>
    <flow id="w_w_0" route="W_to_W" type="realdistribution" begin="0" end="3600" number="64"/>
    <flow id="w_n_0" route="W_to_N" type="realdistribution" begin="0" end="3600" number="7"/>
    <flow id="n_n_1" route="N_to_N" type="realdistribution" begin="3600" end="7200" number="234"/>
    <flow id="n_e_1" route="N_to_E" type="realdistribution" begin="3600" end="7200" number="26"/>
    <flow id="s_s_1" route="S_to_S" type="realdistribution" begin="3600" end="7200" number="215"/>
    <flow id="s_w_1" route="S_to_W" type="realdistribution" begin="3600" end="7200" number="23"/>
    <flow id="e_e_1" route="E_to_E" type="realdistribution" begin="3600" end="7200" number="55"/>
    <flow id="e_s_1" route="E_to_S" type="realdistribution" begin="3600" end="7200" number="6"/>
    <flow id="w_w_1" route="W_to_W" type="realdistribution" begin="3600" end="7200" number="55"/>
    <flow id="w_n_1" route="W_to_N" type="realdistribution" begin="3600" end="7200" number="6"/>
    <flow id="n_n_2" route="N_to_N" type="realdistribution" begin="7200" end="10800" number="257"/>
    <flow id="n_e_2" route="N_to_E" type="realdistribution" begin="7200" end="10800" number="28"/>
    <flow id="s_s_2" route="S_to_S" type="realdistribution" begin="7200" end="10800" number="240"/>
    <flow id="s_w_2" route="S_to_W" type="realdistribution" begin="7200" end="10800" number="26"/>
    <flow id="e_e_2" route="E_to_E" type="realdistribution" begin="7200" end="10800" number="62"/>
    <flow id="e_s_2" route="E_to_S" type="realdistribution" begin="7200" end="10800" number="6"/>
    <flow id="w_w_2" route="W_to_W" type="realdistribution" begin="7200" end="10800" number="62"/>
    <flow id="w_n_2" route="W_to_N" type="realdistribution" begin="7200" end="10800" number="6"/>
    <flow id="n_n_3" route="N_to_N" type="realdistribution" begin="10800" end="14400" number="343"/>
    <flow id="n_e_3" route="N_to_E" type="realdistribution" begin="10800" end="14400" number="38"/>
    <flow id="s_s_3" route="S_to_S" type="realdistribution" begin="10800" end="14400" number="333"/>
    <flow id="s_w_3" route="S_to_W" type="realdistribution" begin="10800" end="14400" number="37"/>
    <flow id="e_e_3" route="E_to_E" type="realdistribution" begin="10800" end="14400" number="84"/>
    <flow id="e_s_3" route="E_to_S" type="realdistribution" begin="10800" end="14400" number="9"/>
    <flow id="w_w_3" route="W_to_W" type="realdistribution" begin="10800" end="14400" number="84"/>
    <flow id="w_n_3" route="W_to_N" type="realdistribution" begin="10800" end="14400" number="9"/>
    <flow id="n_n_4" route="N_to_N" type="realdistribution" begin="14400" end="18000" number="684"/>
    <flow id="n_e_4" route="N_to_E" type="realdistribution" begin="14400" end="18000" number="76"/>
    <flow id="s_s_4" route="S_to_S" type="realdistribution" begin="14400" end="18000" number="504"/>
    <flow id="s_w_4" route="S_to_W" type="realdistribution" begin="14400" end="18000" number="56"/>
    <flow id="e_e_4" route="E_to_E" type="realdistribution" begin="14400" end="18000" number="148"/>
    <flow id="e_s_4" route="E_to_S" type="realdistribution" begin="14400" end="18000" number="16"/>
    <flow id="w_w_4" route="W_to_W" type="realdistribution" begin="14400" end="18000" number="148"/>
    <flow id="w_n_4" route="W_to_N" type="realdistribution" begin="14400" end="18000" number="16"/>
    <flow id="n_n_5" route="N_to_N" type="realdistribution" begin="18000" end="21600" number="1188"/>
    <flow id="n_e_5" route="N_to_E" type="realdistribution" begin="18000" end="21600" number="132"/>
    <flow id="s_s_5" route="S_to_S" type="realdistribution" begin="18000" end="21600" number="859"/>
    <flow id="s_w_5" route="S_to_W" type="realdistribution" begin="18000" end="21600" number="95"/>
    <flow id="e_e_5" route="E_to_E" type="realdistribution" begin="18000" end="21600" number="255"/>
    <flow id="e_s_5" route="E_to_S" type="realdistribution" begin="18000" end="21600" number="28"/>
    <flow id="w_w_5" route="W_to_W" type="realdistribution" begin="18000" end="21600" number="255"/>
    <flow id="w_n_5" route="W_to_N" type="realdistribution" begin="18000" end="21600" number="28"/>
    <flow id="n_n_6" route="N_to_N" type="realdistribution" begin="21600" end="25200" number="1389"/>
    <flow id="n_e_6" route="N_to_E" type="realdistribution" begin="21600" end="25200" number="154"/>
    <flow id="s_s_6" route="S_to_S" type="realdistribution" begin="21600" end="25200" number="1098"/>
    <flow id="s_w_6" route="S_to_W" type="realdistribution" begin="21600" end="25200" number="122"/>
    <flow id="e_e_6" route="E_to_E" type="realdistribution" begin="21600" end="25200" number="310"/>
    <flow id="e_s_6" route="E_to_S" type="realdistribution" begin="21600" end="25200" number="34"/>
    <flow id="w_w_6" route="W_to_W" type="realdistribution" begin="21600" end="25200" number="310"/>
    <flow id="w_n_6" route="W_to_N" type="realdistribution" begin="21600" end="25200" number="34"/>
    <flow id="n_n_7" route="N_to_N" type="realdistribution" begin="25200" end="28800" number="1297"/>
    <flow id="n_e_7" route="N_to_E" type="realdistribution" begin="25200" end="28800" number="144"/>
    <flow id="s_s_7" route="S_to_S" type="realdistribution" begin="25200" end="28800" number="1147"/>
    <flow id="s_w_7" route="S_to_W" type="realdistribution" begin="25200" end="28800" number="127"/>
    <flow id="e_e_7" route="E_to_E" type="realdistribution" begin="25200" end="28800" number="305"/>
    <flow id="e_s_7" route="E_to_S" type="realdistribution" begin="25200" end="28800" number="33"/>
    <flow id="w_w_7" route="W_to_W" type="realdistribution" begin="25200" end="28800" number="305"/>
    <flow id="w_n_7" route="W_to_N" type="realdistribution" begin="25200" end="28800" number="33"/>
    <flow id="n_n_8" route="N_to_N" type="realdistribution" begin="28800" end="32400" number="1267"/>
    <flow id="n_e_8" route="N_to_E" type="realdistribution" begin="28800" end="32400" number="140"/>
    <flow id="s_s_8" route="S_to_S" type="realdistribution" begin="28800" end="32400" number="1022"/>
    <flow id="s_w_8" route="S_to_W" type="realdistribution" begin="28800" end="32400" number="113"/>
    <flow id="e_e_8" route="E_to_E" type="realdistribution" begin="28800" end="32400" number="286"/>
    <flow id="e_s_8" route="E_to_S" type="realdistribution" begin="28800" end="32400" number="31"/>
    <flow id="w_w_8" route="W_to_W" type="realdistribution" begin="28800" end="32400" number="286"/>
    <flow id="w_n_8" route="W_to_N" type="realdistribution" begin="28800" end="32400" number="31"/>
    <flow id="n_n_9" route="N_to_N" type="realdistribution" begin="32400" end="36000" number="1162"/>
    <flow id="n_e_9" route="N_to_E" type="realdistribution" begin="32400" end="36000" number="129"/>
    <flow id="s_s_9" route="S_to_S" type="realdistribution" begin="32400" end="36000" number="1092"/>
    <flow id="s_w_9" route="S_to_W" type="realdistribution" begin="32400" end="36000" number="121"/>
    <flow id="e_e_9" route="E_to_E" type="realdistribution" begin="32400" end="36000" number="281"/>
    <flow id="e_s_9" route="E_to_S" type="realdistribution" begin="32400" end="36000" number="31"/>
    <flow id="w_w_9" route="W_to_W" type="realdistribution" begin="32400" end="36000" number="281"/>
    <flow id="w_n_9" route="W_to_N" type="realdistribution" begin="32400" end="36000" number="31"/>
    <flow id="n_n_10" route="N_to_N" type="realdistribution" begin="36000" end="39600" number="1224"/>
    <flow id="n_e_10" route="N_to_E" type="realdistribution" begin="36000" end="39600" number="136"/>
    <flow id="s_s_10" route="S_to_S" type="realdistribution" begin="36000" end="39600" number="1107"/>
    <flow id="s_w_10" route="S_to_W" type="realdistribution" begin="36000" end="39600" number="123"/>
    <flow id="e_e_10" route="E_to_E" type="realdistribution" begin="36000" end="39600" number="291"/>
    <flow id="e_s_10" route="E_to_S" type="realdistribution" begin="36000" end="39600" number="32"/>
    <flow id="w_w_10" route="W_to_W" type="realdistribution" begin="36000" end="39600" number="291"/>
    <flow id="w_n_10" route="W_to_N" type="realdistribution" begin="36000" end="39600" number="32"/>
    <flow id="n_n_11" route="N_to_N" type="realdistribution" begin="39600" end="43200" number="1153"/>
    <flow id="n_e_11" route="N_to_E" type="realdistribution" begin="39600" end="43200" number="128"/>
    <flow id="s_s_11" route="S_to_S" type="realdistribution" begin="39600" end="43200" number="982"/>
    <flow id="s_w_11" route="S_to_W" type="realdistribution" begin="39600" end="43200" number="109"/>
    <flow id="e_e_11" route="E_to_E" type="realdistribution" begin="39600" end="43200" number="266"/>
    <flow id="e_s_11" route="E_to_S" type="realdistribution" begin="39600" end="43200" number="29"/>
    <flow id="w_w_11" route="W_to_W" type="realdistribution" begin="39600" end="43200" number="266"/>
    <flow id="w_n_11" route="W_to_N" type="realdistribution" begin="39600" end="43200" number="29"/>
    <flow id="n_n_12" route="N_to_N" type="realdistribution" begin="43200" end="46800" number="1285"/>
    <flow id="n_e_12" route="N_to_E" type="realdistribution" begin="43200" end="46800" number="142"/>
    <flow id="s_s_12" route="S_to_S" type="realdistribution" begin="43200" end="46800" number="1065"/>
    <flow id="s_w_12" route="S_to_W" type="realdistribution" begin="43200" end="46800" number="118"/>
    <flow id="e_e_12" route="E_to_E" type="realdistribution" begin="43200" end="46800" number="293"/>
    <flow id="e_s_12" route="E_to_S" type="realdistribution" begin="43200" end="46800" number="32"/>
    <flow id="w_w_12" route="W_to_W" type="realdistribution" begin="43200" end="46800" number="293"/>
    <flow id="w_n_12" route="W_to_N" type="realdistribution" begin="43200" end="46800" number="32"/>
    <flow id="n_n_13" route="N_to_N" type="realdistribution" begin="46800" end="50400" number="1215"/>
    <flow id="n_e_13" route="N_to_E" type="realdistribution" begin="46800" end="50400" number="135"/>
    <flow id="s_s_13" route="S_to_S" type="realdistribution" begin="46800" end="50400" number="1086"/>
    <flow id="s_w_13" route="S_to_W" type="realdistribution" begin="46800" end="50400" number="120"/>
    <flow id="e_e_13" route="E_to_E" type="realdistribution" begin="46800" end="50400" number="287"/>
    <flow id="e_s_13" route="E_to_S" type="realdistribution" begin="46800" end="50400" number="31"/>
    <flow id="w_w_13" route="W_to_W" type="realdistribution" begin="46800" end="50400" number="287"/>
    <flow id="w_n_13" route="W_to_N" type="realdistribution" begin="46800" end="50400" number="31"/>
    <flow id="n_n_14" route="N_to_N" type="realdistribution" begin="50400" end="54000" number="1171"/>
    <flow id="n_e_14" route="N_to_E" type="realdistribution" begin="50400" end="54000" number="130"/>
    <flow id="s_s_14" route="S_to_S" type="realdistribution" begin="50400" end="54000" number="1063"/>
    <flow id="s_w_14" route="S_to_W" type="realdistribution" begin="50400" end="54000" number="118"/>
    <flow id="e_e_14" route="E_to_E" type="realdistribution" begin="50400" end="54000" number="279"/>
    <flow id="e_s_14" route="E_to_S" type="realdistribution" begin="50400" end="54000" number="31"/>
    <flow id="w_w_14" route="W_to_W" type="realdistribution" begin="50400" end="54000" number="279"/>
    <flow id="w_n_14" route="W_to_N" type="realdistribution" begin="50400" end="54000" number="31"/>
    <flow id="n_n_15" route="N_to_N" type="realdistribution" begin="54000" end="57600" number="1271"/>
    <flow id="n_e_15" route="N_to_E" type="realdistribution" begin="54000" end="57600" number="141"/>
    <flow id="s_s_15" route="S_to_S" type="realdistribution" begin="54000" end="57600" number="1111"/>
    <flow id="s_w_15" route="S_to_W" type="realdistribution" begin="54000" end="57600" number="123"/>
    <flow id="e_e_15" route="E_to_E" type="realdistribution" begin="54000" end="57600" number="297"/>
    <flow id="e_s_15" route="E_to_S" type="realdistribution" begin="54000" end="57600" number="33"/>
    <flow id="w_w_15" route="W_to_W" type="realdistribution" begin="54000" end="57600" number="297"/>
    <flow id="w_n_15" route="W_to_N" type="realdistribution" begin="54000" end="57600" number="33"/>
    <flow id="n_n_16" route="N_to_N" type="realdistribution" begin="57600" end="61200" number="1212"/>
    <flow id="n_e_16" route="N_to_E" type="realdistribution" begin="57600" end="61200" number="134"/>
    <flow id="s_s_16" route="S_to_S" type="realdistribution" begin="57600" end="61200" number="979"/>
    <flow id="s_w_16" route="S_to_W" type="realdistribution" begin="57600" end="61200" number="108"/>
    <flow id="e_e_16" route="E_to_E" type="realdistribution" begin="57600" end="61200" number="273"/>
    <flow id="e_s_16" route="E_to_S" type="realdistribution" begin="57600" end="61200" number="30"/>
    <flow id="w_w_16" route="W_to_W" type="realdistribution" begin="57600" end="61200" number="273"/>
    <flow id="w_n_16" route="W_to_N" type="realdistribution" begin="57600" end="61200" number="30"/>
    <flow id="n_n_17" route="N_to_N" type="realdistribution" begin="61200" end="64800" number="1008"/>
    <flow id="n_e_17" route="N_to_E" type="realdistribution" begin="61200" end="64800" number="112"/>
    <flow id="s_s_17" route="S_to_S" type="realdistribution" begin="61200" end="64800" number="846"/>
    <flow id="s_w_17" route="S_to_W" type="realdistribution" begin="61200" end="64800" number="94"/>
    <flow id="e_e_17" route="E_to_E" type="realdistribution" begin="61200" end="64800" number="231"/>
    <flow id="e_s_17" route="E_to_S" type="realdistribution" begin="61200" end="64800" number="25"/>
    <flow id="w_w_17" route="W_to_W" type="realdistribution" begin="61200" end="64800" number="231"/>
    <flow id="w_n_17" route="W_to_N" type="realdistribution" begin="61200" end="64800" number="25"/>
    <flow id="n_n_18" route="N_to_N" type="realdistribution" begin="64800" end="68400" number="930"/>
    <flow id="n_e_18" route="N_to_E" type="realdistribution" begin="64800" end="68400" number="103"/>
    <flow id="s_s_18" route="S_to_S" type="realdistribution" begin="64800" end="68400" number="860"/>
    <flow id="s_w_18" route="S_to_W" type="realdistribution" begin="64800" end="68400" number="95"/>
    <flow id="e_e_18" route="E_to_E" type="realdistribution" begin="64800" end="68400" number="223"/>
    <flow id="e_s_18" route="E_to_S" type="realdistribution" begin="64800" end="68400" number="24"/>
    <flow id="w_w_18" route="W_to_W" type="realdistribution" begin="64800" end="68400" number="223"/>
    <flow id="w_n_18" route="W_to_N" type="realdistribution" begin="64800" end="68400" number="24"/>
    <flow id="n_n_19" route="N_to_N" type="realdistribution" begin="68400" end="72000" number="844"/>
    <flow id="n_e_19" route="N_to_E" type="realdistribution" begin="68400" end="72000" number="93"/>
    <flow id="s_s_19" route="S_to_S" type="realdistribution" begin="68400" end="72000" number="786"/>
    <flow id="s_w_19" route="S_to_W" type="realdistribution" begin="68400" end="72000" number="87"/>
    <flow id="e_e_19" route="E_to_E" type="realdistribution" begin="68400" end="72000" number="203"/>
    <flow id="e_s_19" route="E_to_S" type="realdistribution" begin="68400" end="72000" number="22"/>
    <flow id="w_w_19" route="W_to_W" type="realdistribution" begin="68400" end="72000" number="203"/>
    <flow id="w_n_19" route="W_to_N" type="realdistribution" begin="68400" end="72000" number="22"/>
    <flow id="n_n_20" route="N_to_N" type="realdistribution" begin="72000" end="75600" number="712"/>
    <flow id="n_e_20" route="N_to_E" type="realdistribution" begin="72000" end="75600" number="79"/>
    <flow id="s_s_20" route="S_to_S" type="realdistribution" begin="72000" end="75600" number="741"/>
    <flow id="s_w_20" route="S_to_W" type="realdistribution" begin="72000" end="75600" number="82"/>
    <flow id="e_e_20" route="E_to_E" type="realdistribution" begin="72000" end="75600" number="181"/>
    <flow id="e_s_20" route="E_to_S" type="realdistribution" begin="72000" end="75600" number="20"/>
    <flow id="w_w_20" route="W_to_W" type="realdistribution" begin="72000" end="75600" number="181"/>
    <flow id="w_n_20" route="W_to_N" type="realdistribution" begin="72000" end="75600" number="20"/>
    <flow id="n_n_21" route="N_to_N" type="realdistribution" begin="75600" end="79200" number="557"/>
    <flow id="n_e_21" route="N_to_E" type="realdistribution" begin="75600" end="79200" number="61"/>
    <flow id="s_s_21" route="S_to_S" type="realdistribution" begin="75600" end="79200" number="520"/>
    <flow id="s_w_21" route="S_to_W" type="realdistribution" begin="75600" end="79200" number="57"/>
    <flow id="e_e_21" route="E_to_E" type="realdistribution" begin="75600" end="79200" number="134"/>
    <flow id="e_s_21" route="E_to_S" type="realdistribution" begin="75600" end="79200" number="14"/>
    <flow id="w_w_21" route="W_to_W" type="realdistribution" begin="75600" end="79200" number="134"/>
    <flow id="w_n_21" route="W_to_N" type="realdistribution" begin="75600" end="79200" number="14"/>
    <flow id="n_n_22" route="N_to_N" type="realdistribution" begin="79200" end="82800" number="413"/>
    <flow id="n_e_22" route="N_to_E" type="realdistribution" begin="79200" end="82800" number="45"/>
    <flow id="s_s_22" route="S_to_S" type="realdistribution" begin="79200" end="82800" number="371"/>
    <flow id="s_w_22" route="S_to_W" type="realdistribution" begin="79200" end="82800" number="41"/>
    <flow id="e_e_22" route="E_to_E" type="realdistribution" begin="79200" end="82800" number="98"/>
    <flow id="e_s_22" route="E_to_S" type="realdistribution" begin="79200" end="82800" number="10"/>
    <flow id="w_w_22" route="W_to_W" type="realdistribution" begin="79200" end="82800" number="98"/>
    <flow id="w_n_22" route="W_to_N" type="realdistribution" begin="79200" end="82800" number="10"/>
    <flow id="n_n_23" route="N_to_N" type="realdistribution" begin="82800" end="86400" number="336"/>
    <flow id="n_e_23" route="N_to_E" type="realdistribution" begin="82800" end="86400" number="37"/>
    <flow id="s_s_23" route="S_to_S" type="realdistribution" begin="82800" end="86400" number="323"/>
    <flow id="s_w_23" route="S_to_W" type="realdistribution" begin="82800" end="86400" number="35"/>
    <flow id="e_e_23" route="E_to_E" type="realdistribution" begin="82800" end="86400" number="81"/>
    <flow id="e_s_23" route="E_to_S" type="realdistribution" begin="82800" end="86400" number="9"/>
    <flow id="w_w_23" route="W_to_W" type="realdistribution" begin="82800" end="86400" number="81"/>
    <flow id="w_n_23" route="W_to_N" type="realdistribution" begin="82800" end="86400" number="9"/>
</routes>
