<?xml version="1.0" encoding="UTF-8"?>

<!-- generated on 2025-12-02 00:20:54 by Eclipse SUMO duarouter Version 1.24.0
<duarouterConfiguration xmlns:xsi="http://www.w3.org/2001/XMLSchema-instance" xsi:noNamespaceSchemaLocation="http://sumo.dlr.de/xsd/duarouterConfiguration.xsd">

    <input>
        <net-file value="quimpo-GE_torres.net.xml"/>
        <route-files value="debug_trip.xml"/>
    </input>

    <output>
        <output-file value="correct_route.rou.xml"/>
    </output>

    <report>
        <ignore-errors value="true"/>
    </report>

</duarouterConfiguration>
-->

<routes xmlns:xsi="http://www.w3.org/2001/XMLSchema-instance" xsi:noNamespaceSchemaLocation="http://sumo.dlr.de/xsd/routes_file.xsd">
    <vehicle id="debug_N_to_S" depart="0.00">
        <route edges="north_start -24224169#0 -1102489115#1 -1102489115#0 455558436#0 455558436#1 1069919420 south_end"/>
    </vehicle>
    <vehicle id="debug_N_to_W" depart="0.00">
        <route edges="north_start -24224169#0 -1102489115#1 -1102489115#0 -1069919422#1 -1069919422#0 -1444642979#1 -1444642979#0 -1444642978 west_end"/>
    </vehicle>
    <vehicle id="debug_N_to_E" depart="0.00">
        <route edges="north_start -24224169#0 -1102489115#1 -1102489115#0 934134356#0 934134356#1 1069919421 east_end"/>
    </vehicle>
    <vehicle id="debug_S_to_W" depart="0.00">
        <route edges="south_start -1069919420 -455558436#1 -455558436#0 -1069919422#1 -1069919422#0 -1444642979#1 -1444642979#0 -1444642978 west_end"/>
    </vehicle>
    <vehicle id="debug_S_to_E" depart="0.00">
        <route edges="south_start 24224171#0 24224171#1 24224171#2 east_end"/>
    </vehicle>
    <vehicle id="debug_S_to_N" depart="0.00">
        <route edges="south_start -1069919420 -455558436#1 -455558436#0 1102489115#0 1102489115#1 24224169#0 north_end"/>
    </vehicle>
    <vehicle id="debug_E_to_W" depart="0.00">
        <route edges="east_start -1069919421 -934134356#1 -934134356#0 -1069919422#1 -1069919422#0 -1444642979#1 -1444642979#0 -1444642978 west_end"/>
    </vehicle>
    <vehicle id="debug_E_to_N" depart="0.00">
        <route edges="east_start -1069919421 -934134356#1 -934134356#0 1102489115#0 1102489115#1 24224169#0 north_end"/>
    </vehicle>
    <vehicle id="debug_E_to_S" depart="0.00">
        <route edges="east_start -1069919421 -934134356#1 -934134356#0 455558436#0 455558436#1 1069919420 south_end"/>
    </vehicle>
    <vehicle id="debug_W_to_S" depart="0.00">
        <route edges="west_start 1444642978 1444642979#0 1444642979#1 1069919422#0 1069919422#1 455558436#0 455558436#1 1069919420 south_end"/>
    </vehicle>
    <vehicle id="debug_W_to_N" depart="0.00">
        <route edges="west_start 1444642978 1444642979#0 1444642979#1 1069919422#0 1069919422#1 1102489115#0 1102489115#1 24224169#0 north_end"/>
    </vehicle>
    <vehicle id="debug_W_to_E" depart="0.00">
        <route edges="west_start 1444642978 1444642979#0 1444642979#1 1069919422#0 1069919422#1 934134356#0 934134356#1 1069919421 east_end"/>
    </vehicle>
</routes>
