<?xml version="1.0" encoding="UTF-8"?>

<!-- generated on 2025-12-02 10:42:16 by Eclipse SUMO netedit Version 1.24.0
<neteditConfiguration xmlns:xsi="http://www.w3.org/2001/XMLSchema-instance" xsi:noNamespaceSchemaLocation="http://sumo.dlr.de/xsd/neteditConfiguration.xsd">

    <input>
        <sumo-net-file value="quimpo-GE_torres.net.xml"/>
    </input>

    <output>
        <output-file value="quimpo-GE_torres.net.xml"/>
    </output>

    <processing>
        <geometry.min-radius.fix.railways value="false"/>
        <geometry.avoid-overlap value="false"/>
        <geometry.max-grade.fix value="false"/>
        <offset.disable-normalization value="true"/>
        <lefthand value="0"/>
    </processing>

    <junctions>
        <no-turnarounds value="true"/>
        <junctions.corner-detail value="5"/>
        <junctions.limit-turn-speed value="5.50"/>
        <rectangular-lane-cut value="0"/>
    </junctions>

    <pedestrian>
        <walkingareas value="0"/>
    </pedestrian>

</neteditConfiguration>
-->

<net version="1.20" junctionCornerDetail="5" limitTurnSpeed="5.50" avoidOverlap="0" xmlns:xsi="http://www.w3.org/2001/XMLSchema-instance" xsi:noNamespaceSchemaLocation="http://sumo.dlr.de/xsd/net_file.xsd">

    <location netOffset="-787013.40,-780752.76" convBoundary="280.25,0.00,489.12,217.18" origBoundary="125.598006,7.056102,125.604087,7.063359" projParameter="+proj=utm +zone=51 +ellps=WGS84 +datum=WGS84 +units=m +no_defs"/>

    <type id="highway.primary" priority="12" numLanes="2" speed="27.78" disallow="tram rail_urban rail rail_electric rail_fast ship container cable_car subway aircraft wheelchair scooter drone" oneway="0"/>
    <type id="highway.secondary" priority="11" numLanes="1" speed="27.78" disallow="tram rail_urban rail rail_electric rail_fast ship container cable_car subway aircraft wheelchair scooter drone" oneway="0"/>
    <type id="highway.tertiary" priority="10" numLanes="1" speed="22.22" disallow="tram rail_urban rail rail_electric rail_fast ship container cable_car subway aircraft wheelchair scooter drone" oneway="0"/>

    <edge id=":1227902879_0" function="internal">
        <lane id=":1227902879_0_0" index="0" disallow="tram rail_urban rail rail_electric rail_fast ship container cable_car subway aircraft wheelchair scooter drone" speed="11.11" length="0.22" shape="365.00,125.88 364.94,126.05"/>
        <lane id=":1227902879_0_1" index="1" disallow="tram rail_urban rail rail_electric rail_fast ship container cable_car subway aircraft wheelchair scooter drone" speed="11.11" length="0.22" shape="361.99,124.81 361.90,125.05"/>
    </edge>
    <edge id=":1227902879_2" function="internal">
        <lane id=":1227902879_2_0" index="0" disallow="tram rail_urban rail rail_electric rail_fast ship container cable_car subway aircraft wheelchair scooter drone" speed="11.11" length="0.34" shape="355.83,123.03 355.95,122.68"/>
        <lane id=":1227902879_2_1" index="1" disallow="tram rail_urban rail rail_electric rail_fast ship container cable_car subway aircraft wheelchair scooter drone" speed="11.11" length="0.34" shape="358.87,124.04 358.97,123.74"/>
    </edge>
    <edge id=":1227907805_0" function="internal">
        <lane id=":1227907805_0_0" index="0" disallow="tram rail_urban rail rail_electric rail_fast ship container cable_car subway aircraft wheelchair scooter drone" speed="6.08" length="9.06" shape="365.83,151.70 363.23,151.34 361.34,151.92 360.13,153.45 359.63,155.91"/>
    </edge>
    <edge id=":1227907805_1" function="internal">
        <lane id=":1227907805_1_0" index="0" disallow="tram rail_urban rail rail_electric rail_fast ship container cable_car subway aircraft wheelchair scooter drone" speed="11.11" length="25.42" shape="365.83,151.70 358.51,149.57 353.56,147.88 348.76,145.82 341.87,142.57"/>
        <lane id=":1227907805_1_1" index="1" disallow="tram rail_urban rail rail_electric rail_fast ship container cable_car subway aircraft wheelchair scooter drone" speed="11.11" length="25.42" shape="366.84,148.66 359.60,146.56 354.72,144.89 349.97,142.85 343.15,139.63"/>
        <lane id=":1227907805_1_2" index="2" disallow="tram rail_urban rail rail_electric rail_fast ship container cable_car subway aircraft wheelchair scooter drone" speed="11.11" length="25.42" shape="367.86,145.62 360.70,143.54 355.87,141.89 351.17,139.88 344.42,136.69"/>
    </edge>
    <edge id=":1227907805_4" function="internal">
        <lane id=":1227907805_4_0" index="0" disallow="tram rail_urban rail rail_electric rail_fast ship container cable_car subway aircraft wheelchair scooter drone" speed="10.43" length="25.72" shape="367.86,145.62 361.74,142.79 358.12,138.48 357.02,132.67 358.43,125.37"/>
    </edge>
    <edge id=":1227907805_5" function="internal">
        <lane id=":1227907805_5_0" index="0" disallow="tram rail_urban rail rail_electric rail_fast ship container cable_car subway aircraft wheelchair scooter drone" speed="11.11" length="29.83" shape="364.70,126.78 362.66,133.93 361.19,141.16 360.21,148.48 359.63,155.91"/>
        <lane id=":1227907805_5_1" index="1" disallow="tram rail_urban rail rail_electric rail_fast ship container cable_car subway aircraft wheelchair scooter drone" speed="11.11" length="29.83" shape="361.56,126.08 359.51,133.28 358.03,140.64 357.03,148.08 356.44,155.57"/>
    </edge>
    <edge id=":1227907805_7" function="internal">
        <lane id=":1227907805_7_0" index="0" disallow="tram rail_urban rail rail_electric rail_fast ship container cable_car subway aircraft wheelchair scooter drone" speed="9.74" length="23.53" shape="361.56,126.08 358.48,132.82 354.60,136.83 349.91,138.12 344.42,136.69"/>
    </edge>
    <edge id=":1227907805_8" function="internal">
        <lane id=":1227907805_8_0" index="0" disallow="tram rail_urban rail rail_electric rail_fast ship container cable_car subway aircraft wheelchair scooter drone" speed="6.27" length="9.09" shape="348.26,127.89 350.63,128.60 352.59,128.31 354.14,126.99 355.29,124.67"/>
    </edge>
    <edge id=":1227907805_9" function="internal">
        <lane id=":1227907805_9_0" index="0" disallow="tram rail_urban rail rail_electric rail_fast ship container cable_car subway aircraft wheelchair scooter drone" speed="11.11" length="24.57" shape="348.26,127.89 354.78,130.96 359.32,132.91 363.99,134.50 370.91,136.51"/>
        <lane id=":1227907805_9_1" index="1" disallow="tram rail_urban rail rail_electric rail_fast ship container cable_car subway aircraft wheelchair scooter drone" speed="11.11" length="24.57" shape="346.98,130.82 353.57,133.93 358.17,135.90 362.89,137.52 369.90,139.54"/>
        <lane id=":1227907805_9_2" index="2" disallow="tram rail_urban rail rail_electric rail_fast ship container cable_car subway aircraft wheelchair scooter drone" speed="11.11" length="24.57" shape="345.70,133.76 352.37,136.90 357.02,138.90 361.80,140.53 368.88,142.58"/>
    </edge>
    <edge id=":1227907805_12" function="internal">
        <lane id=":1227907805_12_0" index="0" disallow="tram rail_urban rail rail_electric rail_fast ship container cable_car subway aircraft wheelchair scooter drone" speed="11.11" length="25.89" shape="345.70,133.76 350.73,137.19 354.20,141.97 356.10,148.09 356.44,155.57"/>
    </edge>
    <edge id=":1227907805_13" function="internal">
        <lane id=":1227907805_13_0" index="0" disallow="tram rail_urban rail rail_electric rail_fast ship container cable_car subway aircraft wheelchair scooter drone" speed="9.93" length="15.76" shape="350.07,154.87 349.72,151.02 348.24,147.69 345.62,144.87 341.87,142.57"/>
    </edge>
    <edge id=":1227907805_14" function="internal">
        <lane id=":1227907805_14_0" index="0" disallow="tram rail_urban rail rail_electric rail_fast ship container cable_car subway aircraft wheelchair scooter drone" speed="11.11" length="30.55" shape="350.07,154.87 350.67,147.27 351.70,139.59 353.22,131.99 355.29,124.67"/>
        <lane id=":1227907805_14_1" index="1" disallow="tram rail_urban rail rail_electric rail_fast ship container cable_car subway aircraft wheelchair scooter drone" speed="11.11" length="30.55" shape="353.26,155.22 353.85,147.68 354.86,140.11 356.37,132.64 358.43,125.37"/>
    </edge>
    <edge id=":1227907805_16" function="internal">
        <lane id=":1227907805_16_0" index="0" disallow="tram rail_urban rail rail_electric rail_fast ship container cable_car subway aircraft wheelchair scooter drone" speed="10.24" length="27.95" shape="353.26,155.22 354.43,146.93 357.25,141.33 362.24,138.76 369.90,139.54"/>
        <lane id=":1227907805_16_1" index="1" disallow="tram rail_urban rail rail_electric rail_fast ship container cable_car subway aircraft wheelchair scooter drone" speed="9.57" length="24.27" shape="353.26,155.22 354.57,148.13 357.62,143.67 362.38,141.82 368.88,142.58"/>
    </edge>
    <edge id=":1227907825_0" function="internal">
        <lane id=":1227907825_0_0" index="0" disallow="tram rail_urban rail rail_electric rail_fast ship container cable_car subway aircraft wheelchair scooter drone" speed="11.11" length="0.61" shape="300.84,112.13 300.31,111.69"/>
        <lane id=":1227907825_0_1" index="1" disallow="tram rail_urban rail rail_electric rail_fast ship container cable_car subway aircraft wheelchair scooter drone" speed="11.11" length="0.61" shape="302.82,109.62 302.42,109.28"/>
    </edge>
    <edge id=":1227907825_2" function="internal">
        <lane id=":1227907825_2_0" index="0" disallow="tram rail_urban rail rail_electric rail_fast ship container cable_car subway aircraft wheelchair scooter drone" speed="11.11" length="0.21" shape="308.74,102.06 308.78,102.10"/>
        <lane id=":1227907825_2_1" index="1" disallow="tram rail_urban rail rail_electric rail_fast ship container cable_car subway aircraft wheelchair scooter drone" speed="11.11" length="0.21" shape="306.64,104.47 306.80,104.61"/>
        <lane id=":1227907825_2_2" index="2" disallow="tram rail_urban rail rail_electric rail_fast ship container cable_car subway aircraft wheelchair scooter drone" speed="11.11" length="0.21" shape="304.53,106.88 304.81,107.12"/>
    </edge>
    <edge id=":1227907832_0" function="internal">
        <lane id=":1227907832_0_0" index="0" disallow="tram rail_urban rail rail_electric rail_fast ship container cable_car subway aircraft wheelchair scooter drone" speed="11.11" length="1.02" shape="290.20,102.21 289.42,101.38"/>
        <lane id=":1227907832_0_1" index="1" disallow="tram rail_urban rail rail_electric rail_fast ship container cable_car subway aircraft wheelchair scooter drone" speed="11.11" length="1.02" shape="292.45,99.94 291.85,99.29"/>
    </edge>
    <edge id=":1227907832_2" function="internal">
        <lane id=":1227907832_2_0" index="0" disallow="tram rail_urban rail rail_electric rail_fast ship container cable_car subway aircraft wheelchair scooter drone" speed="11.11" length="0.38" shape="299.13,93.04 299.22,93.14"/>
        <lane id=":1227907832_2_1" index="1" disallow="tram rail_urban rail rail_electric rail_fast ship container cable_car subway aircraft wheelchair scooter drone" speed="11.11" length="0.38" shape="296.71,95.13 296.96,95.41"/>
        <lane id=":1227907832_2_2" index="2" disallow="tram rail_urban rail rail_electric rail_fast ship container cable_car subway aircraft wheelchair scooter drone" speed="11.11" length="0.38" shape="294.28,97.21 294.71,97.67"/>
    </edge>
    <edge id=":1227907841_0" function="internal">
        <lane id=":1227907841_0_0" index="0" disallow="tram rail_urban rail rail_electric rail_fast ship container cable_car subway aircraft wheelchair scooter drone" speed="11.11" length="6.45" shape="380.74,155.46 374.39,154.00"/>
        <lane id=":1227907841_0_1" index="1" disallow="tram rail_urban rail rail_electric rail_fast ship container cable_car subway aircraft wheelchair scooter drone" speed="11.11" length="6.45" shape="381.41,152.33 375.13,150.89"/>
        <lane id=":1227907841_0_2" index="2" disallow="tram rail_urban rail rail_electric rail_fast ship container cable_car subway aircraft wheelchair scooter drone" speed="11.11" length="6.45" shape="382.08,149.20 375.87,147.78"/>
    </edge>
    <edge id=":1227907841_3" function="internal">
        <lane id=":1227907841_3_0" index="0" disallow="tram rail_urban rail rail_electric rail_fast ship container cable_car subway aircraft wheelchair scooter drone" speed="11.11" length="7.25" shape="378.09,138.44 379.88,139.38 380.75,140.72 381.63,142.04 383.42,142.94"/>
        <lane id=":1227907841_3_1" index="1" disallow="tram rail_urban rail rail_electric rail_fast ship container cable_car subway aircraft wheelchair scooter drone" speed="11.11" length="7.25" shape="377.35,141.55 379.16,142.50 380.04,143.84 380.94,145.17 382.75,146.07"/>
    </edge>
    <edge id=":1227907860_0" function="internal">
        <lane id=":1227907860_0_0" index="0" disallow="tram rail_urban rail rail_electric rail_fast ship container cable_car subway aircraft wheelchair scooter drone" speed="11.11" length="0.51" shape="316.41,124.07 315.94,123.74"/>
        <lane id=":1227907860_0_1" index="1" disallow="tram rail_urban rail rail_electric rail_fast ship container cable_car subway aircraft wheelchair scooter drone" speed="11.11" length="0.51" shape="318.21,121.43 317.85,121.17"/>
    </edge>
    <edge id=":1227907860_2" function="internal">
        <lane id=":1227907860_2_0" index="0" disallow="tram rail_urban rail rail_electric rail_fast ship container cable_car subway aircraft wheelchair scooter drone" speed="11.11" length="0.19" shape="323.57,113.46 323.63,113.50"/>
        <lane id=":1227907860_2_1" index="1" disallow="tram rail_urban rail rail_electric rail_fast ship container cable_car subway aircraft wheelchair scooter drone" speed="11.11" length="0.19" shape="321.67,116.03 321.82,116.14"/>
        <lane id=":1227907860_2_2" index="2" disallow="tram rail_urban rail rail_electric rail_fast ship container cable_car subway aircraft wheelchair scooter drone" speed="11.11" length="0.19" shape="319.76,118.60 320.02,118.78"/>
    </edge>
    <edge id=":1227918159_0" function="internal">
        <lane id=":1227918159_0_0" index="0" disallow="tram rail_urban rail rail_electric rail_fast ship container cable_car subway aircraft wheelchair scooter drone" speed="11.11" length="23.03" shape="403.47,160.38 380.93,155.50"/>
        <lane id=":1227918159_0_1" index="1" disallow="tram rail_urban rail rail_electric rail_fast ship container cable_car subway aircraft wheelchair scooter drone" speed="11.11" length="23.03" shape="404.11,157.25 381.60,152.37"/>
        <lane id=":1227918159_0_2" index="2" disallow="tram rail_urban rail rail_electric rail_fast ship container cable_car subway aircraft wheelchair scooter drone" speed="11.11" length="23.03" shape="404.76,154.11 382.28,149.24"/>
    </edge>
    <edge id=":1227918159_3" function="internal">
        <lane id=":1227918159_3_0" index="0" disallow="tram rail_urban rail rail_electric rail_fast ship container cable_car subway aircraft wheelchair scooter drone" speed="11.11" length="25.01" shape="386.31,134.61 390.50,139.80 394.71,143.50 399.65,146.06 406.04,147.84"/>
        <lane id=":1227918159_3_1" index="1" disallow="tram rail_urban rail rail_electric rail_fast ship container cable_car subway aircraft wheelchair scooter drone" speed="11.11" length="25.01" shape="384.49,137.54 388.86,142.77 393.48,146.54 398.83,149.17 405.40,150.98"/>
    </edge>
    <edge id=":1227918159_5" function="internal">
        <lane id=":1227918159_5_0" index="0" disallow="tram rail_urban rail rail_electric rail_fast ship container cable_car subway aircraft wheelchair scooter drone" speed="11.11" length="22.96" shape="383.62,142.99 406.04,147.84"/>
        <lane id=":1227918159_5_1" index="1" disallow="tram rail_urban rail rail_electric rail_fast ship container cable_car subway aircraft wheelchair scooter drone" speed="11.11" length="22.96" shape="382.95,146.11 405.40,150.98"/>
    </edge>
    <edge id=":1255241771_0" function="internal">
        <lane id=":1255241771_0_0" index="0" disallow="tram rail_urban rail rail_electric rail_fast ship container cable_car subway aircraft wheelchair scooter drone" speed="11.11" length="31.29" shape="383.59,79.77 381.92,87.30 380.09,95.03 378.81,102.78 378.77,110.37"/>
        <lane id=":1255241771_0_1" index="1" disallow="tram rail_urban rail rail_electric rail_fast ship container cable_car subway aircraft wheelchair scooter drone" speed="11.11" length="31.29" shape="380.44,79.19 378.76,86.78 376.90,94.63 375.58,102.50 375.52,110.15"/>
    </edge>
    <edge id=":1255241771_2" function="internal">
        <lane id=":1255241771_2_0" index="0" disallow="tram rail_urban rail rail_electric rail_fast ship container cable_car subway aircraft wheelchair scooter drone" speed="11.11" length="31.40" shape="380.44,79.19 378.87,86.75 376.87,94.48 374.47,102.09 371.71,109.30"/>
        <lane id=":1255241771_2_1" index="1" disallow="tram rail_urban rail rail_electric rail_fast ship container cable_car subway aircraft wheelchair scooter drone" speed="11.11" length="31.20" shape="380.44,79.19 378.41,86.56 375.40,93.86 371.99,101.04 368.77,108.05"/>
    </edge>
    <edge id=":1255241771_4" function="internal">
        <lane id=":1255241771_4_0" index="0" disallow="tram rail_urban rail rail_electric rail_fast ship container cable_car subway aircraft wheelchair scooter drone" speed="11.11" length="30.15" shape="362.88,105.55 366.03,98.75 369.30,92.03 372.18,85.20 374.14,78.05"/>
        <lane id=":1255241771_4_1" index="1" disallow="tram rail_urban rail rail_electric rail_fast ship container cable_car subway aircraft wheelchair scooter drone" speed="11.11" length="30.15" shape="365.82,106.80 369.01,99.90 372.35,92.95 375.29,85.88 377.29,78.62"/>
    </edge>
    <edge id=":1269977760_0" function="internal">
        <lane id=":1269977760_0_0" index="0" disallow="tram rail_urban rail rail_electric rail_fast ship container cable_car subway aircraft wheelchair scooter drone" speed="3.65" length="4.67" shape="391.22,-0.27 392.22,-1.32 393.07,-1.58 393.79,-1.05 394.38,0.27"/>
    </edge>
    <edge id=":1269977762_0" function="internal">
        <lane id=":1269977762_0_0" index="0" disallow="tram rail_urban rail rail_electric rail_fast ship container cable_car subway aircraft wheelchair scooter drone" speed="11.11" length="0.32" shape="358.44,187.94 358.43,188.27"/>
        <lane id=":1269977762_0_1" index="1" disallow="tram rail_urban rail rail_electric rail_fast ship container cable_car subway aircraft wheelchair scooter drone" speed="11.11" length="0.32" shape="355.24,187.84 355.23,188.15"/>
    </edge>
    <edge id=":1269977762_2" function="internal">
        <lane id=":1269977762_2_0" index="0" disallow="tram rail_urban rail rail_electric rail_fast ship container cable_car subway aircraft wheelchair scooter drone" speed="11.11" length="0.27" shape="348.84,187.90 348.85,187.65"/>
        <lane id=":1269977762_2_1" index="1" disallow="tram rail_urban rail rail_electric rail_fast ship container cable_car subway aircraft wheelchair scooter drone" speed="11.11" length="0.27" shape="352.04,188.03 352.05,187.74"/>
    </edge>
    <edge id=":2682182664_0" function="internal">
        <lane id=":2682182664_0_0" index="0" disallow="tram rail_urban rail rail_electric rail_fast ship container cable_car subway aircraft wheelchair scooter drone" speed="11.11" length="0.25" shape="359.05,167.85 359.04,168.08"/>
        <lane id=":2682182664_0_1" index="1" disallow="tram rail_urban rail rail_electric rail_fast ship container cable_car subway aircraft wheelchair scooter drone" speed="11.11" length="0.25" shape="355.85,167.71 355.84,167.98"/>
    </edge>
    <edge id=":2682182664_2" function="internal">
        <lane id=":2682182664_2_0" index="0" disallow="tram rail_urban rail rail_electric rail_fast ship container cable_car subway aircraft wheelchair scooter drone" speed="11.11" length="0.33" shape="349.45,167.79 349.46,167.44"/>
        <lane id=":2682182664_2_1" index="1" disallow="tram rail_urban rail rail_electric rail_fast ship container cable_car subway aircraft wheelchair scooter drone" speed="11.11" length="0.33" shape="352.65,167.89 352.66,167.58"/>
    </edge>
    <edge id=":430134806_0" function="internal">
        <lane id=":430134806_0_0" index="0" disallow="tram rail_urban rail rail_electric rail_fast ship container cable_car subway aircraft wheelchair scooter drone" speed="11.11" length="0.47" shape="383.60,130.26 383.63,130.33 383.65,130.37 383.67,130.41 383.70,130.47"/>
        <lane id=":430134806_0_1" index="1" disallow="tram rail_urban rail rail_electric rail_fast ship container cable_car subway aircraft wheelchair scooter drone" speed="11.11" length="0.47" shape="380.63,131.44 380.70,131.63 380.76,131.77 380.83,131.89 380.93,132.07"/>
    </edge>
    <edge id=":6405927167_0" function="internal">
        <lane id=":6405927167_0_0" index="0" disallow="tram rail_urban rail rail_electric rail_fast ship container cable_car subway aircraft wheelchair scooter drone" speed="11.11" length="0.34" shape="385.22,133.10 385.25,133.15 385.26,133.18 385.28,133.20 385.31,133.25"/>
        <lane id=":6405927167_0_1" index="1" disallow="tram rail_urban rail rail_electric rail_fast ship container cable_car subway aircraft wheelchair scooter drone" speed="11.11" length="0.34" shape="382.45,134.70 382.53,134.83 382.58,134.92 382.64,135.01 382.73,135.13"/>
    </edge>
    <edge id=":8657682374_0" function="internal">
        <lane id=":8657682374_0_0" index="0" disallow="tram rail_urban rail rail_electric rail_fast ship container cable_car subway aircraft wheelchair scooter drone" speed="11.11" length="0.26" shape="359.34,161.21 359.33,161.45"/>
        <lane id=":8657682374_0_1" index="1" disallow="tram rail_urban rail rail_electric rail_fast ship container cable_car subway aircraft wheelchair scooter drone" speed="11.11" length="0.26" shape="356.15,161.04 356.13,161.32"/>
    </edge>
    <edge id=":8657682374_2" function="internal">
        <lane id=":8657682374_2_0" index="0" disallow="tram rail_urban rail rail_electric rail_fast ship container cable_car subway aircraft wheelchair scooter drone" speed="11.11" length="0.33" shape="349.74,161.04 349.75,160.69"/>
        <lane id=":8657682374_2_1" index="1" disallow="tram rail_urban rail rail_electric rail_fast ship container cable_car subway aircraft wheelchair scooter drone" speed="11.11" length="0.33" shape="352.94,161.18 352.95,160.87"/>
    </edge>
    <edge id=":8657682375_0" function="internal">
        <lane id=":8657682375_0_0" index="0" disallow="tram rail_urban rail rail_electric rail_fast ship container cable_car subway aircraft wheelchair scooter drone" speed="11.11" length="0.44" shape="338.28,140.86 337.81,140.63"/>
        <lane id=":8657682375_0_1" index="1" disallow="tram rail_urban rail rail_electric rail_fast ship container cable_car subway aircraft wheelchair scooter drone" speed="11.11" length="0.44" shape="339.65,137.97 339.26,137.78"/>
        <lane id=":8657682375_0_2" index="2" disallow="tram rail_urban rail rail_electric rail_fast ship container cable_car subway aircraft wheelchair scooter drone" speed="11.11" length="0.44" shape="341.02,135.08 340.71,134.93"/>
    </edge>
    <edge id=":8657682375_3" function="internal">
        <lane id=":8657682375_3_0" index="0" disallow="tram rail_urban rail rail_electric rail_fast ship container cable_car subway aircraft wheelchair scooter drone" speed="11.11" length="0.16" shape="345.07,126.37 345.13,126.41"/>
        <lane id=":8657682375_3_1" index="1" disallow="tram rail_urban rail rail_electric rail_fast ship container cable_car subway aircraft wheelchair scooter drone" speed="11.11" length="0.16" shape="343.61,129.22 343.76,129.30"/>
        <lane id=":8657682375_3_2" index="2" disallow="tram rail_urban rail rail_electric rail_fast ship container cable_car subway aircraft wheelchair scooter drone" speed="11.11" length="0.16" shape="342.16,132.08 342.39,132.19"/>
    </edge>
    <edge id=":8657682376_0" function="internal">
        <lane id=":8657682376_0_0" index="0" disallow="tram rail_urban rail rail_electric rail_fast ship container cable_car subway aircraft wheelchair scooter drone" speed="11.11" length="0.61" shape="372.32,153.51 371.60,153.32"/>
        <lane id=":8657682376_0_1" index="1" disallow="tram rail_urban rail rail_electric rail_fast ship container cable_car subway aircraft wheelchair scooter drone" speed="11.11" length="0.61" shape="373.06,150.40 372.47,150.24"/>
        <lane id=":8657682376_0_2" index="2" disallow="tram rail_urban rail rail_electric rail_fast ship container cable_car subway aircraft wheelchair scooter drone" speed="11.11" length="0.61" shape="373.80,147.28 373.34,147.16"/>
    </edge>
    <edge id=":8657682376_3" function="internal">
        <lane id=":8657682376_3_0" index="0" disallow="tram rail_urban rail rail_electric rail_fast ship container cable_car subway aircraft wheelchair scooter drone" speed="11.11" length="0.21" shape="375.95,137.92 376.02,137.95"/>
        <lane id=":8657682376_3_1" index="1" disallow="tram rail_urban rail rail_electric rail_fast ship container cable_car subway aircraft wheelchair scooter drone" speed="11.11" length="0.21" shape="375.08,141.00 375.28,141.06"/>
        <lane id=":8657682376_3_2" index="2" disallow="tram rail_urban rail rail_electric rail_fast ship container cable_car subway aircraft wheelchair scooter drone" speed="11.11" length="0.21" shape="374.21,144.08 374.54,144.17"/>
    </edge>
    <edge id=":9819770415_0" function="internal">
        <lane id=":9819770415_0_0" index="0" disallow="tram rail_urban rail rail_electric rail_fast ship container cable_car subway aircraft wheelchair scooter drone" speed="11.11" length="0.20" shape="366.63,121.29 366.59,121.38"/>
        <lane id=":9819770415_0_1" index="1" disallow="tram rail_urban rail rail_electric rail_fast ship container cable_car subway aircraft wheelchair scooter drone" speed="11.11" length="0.20" shape="363.68,120.04 363.57,120.32"/>
    </edge>
    <edge id=":9819770415_2" function="internal">
        <lane id=":9819770415_2_0" index="0" disallow="tram rail_urban rail rail_electric rail_fast ship container cable_car subway aircraft wheelchair scooter drone" speed="11.11" length="0.59" shape="357.54,118.19 357.79,117.54"/>
        <lane id=":9819770415_2_1" index="1" disallow="tram rail_urban rail rail_electric rail_fast ship container cable_car subway aircraft wheelchair scooter drone" speed="11.11" length="0.59" shape="360.56,119.25 360.73,118.79"/>
    </edge>
    <edge id=":9819787417_0" function="internal">
        <lane id=":9819787417_0_0" index="0" disallow="tram rail_urban rail rail_electric rail_fast ship container cable_car subway aircraft wheelchair scooter drone" speed="11.11" length="8.95" shape="335.58,139.49 333.56,137.91 332.68,136.20 331.82,134.45 329.88,132.73"/>
        <lane id=":9819787417_0_1" index="1" disallow="tram rail_urban rail rail_electric rail_fast ship container cable_car subway aircraft wheelchair scooter drone" speed="11.11" length="8.95" shape="337.03,136.64 335.06,135.08 334.22,133.39 333.40,131.66 331.50,129.97"/>
    </edge>
    <edge id=":9819787417_2" function="internal">
        <lane id=":9819787417_2_0" index="0" disallow="tram rail_urban rail rail_electric rail_fast ship container cable_car subway aircraft wheelchair scooter drone" speed="11.11" length="7.57" shape="336.36,121.69 342.84,125.24"/>
        <lane id=":9819787417_2_1" index="1" disallow="tram rail_urban rail rail_electric rail_fast ship container cable_car subway aircraft wheelchair scooter drone" speed="11.11" length="7.57" shape="334.74,124.45 341.38,128.09"/>
        <lane id=":9819787417_2_2" index="2" disallow="tram rail_urban rail rail_electric rail_fast ship container cable_car subway aircraft wheelchair scooter drone" speed="11.11" length="7.57" shape="333.12,127.21 339.93,130.94"/>
    </edge>

    <edge id="-1069919420" from="1255241771" to="9819770415" priority="10" type="highway.tertiary">
        <lane id="-1069919420_0" index="0" disallow="tram rail_urban rail rail_electric rail_fast ship container cable_car subway aircraft wheelchair scooter drone" speed="11.11" length="13.03" shape="371.71,109.30 366.63,121.29"/>
        <lane id="-1069919420_1" index="1" disallow="tram rail_urban rail rail_electric rail_fast ship container cable_car subway aircraft wheelchair scooter drone" speed="11.11" length="13.03" shape="368.77,108.05 363.68,120.04"/>
    </edge>
    <edge id="-1069919421" from="1227918159" to="1227907841" priority="12" type="highway.primary">
        <lane id="-1069919421_0" index="0" disallow="tram rail_urban rail rail_electric rail_fast ship container cable_car subway aircraft wheelchair scooter drone" speed="11.11" length="0.20" shape="380.93,155.50 380.74,155.46"/>
        <lane id="-1069919421_1" index="1" disallow="tram rail_urban rail rail_electric rail_fast ship container cable_car subway aircraft wheelchair scooter drone" speed="11.11" length="0.20" shape="381.60,152.37 381.41,152.33"/>
        <lane id="-1069919421_2" index="2" disallow="tram rail_urban rail rail_electric rail_fast ship container cable_car subway aircraft wheelchair scooter drone" speed="11.11" length="0.20" shape="382.28,149.24 382.08,149.20"/>
        <param key="ref" value="916"/>
    </edge>
    <edge id="-1069919422#0" from="8657682375" to="9819787417" priority="12" type="highway.primary">
        <lane id="-1069919422#0_0" index="0" disallow="tram rail_urban rail rail_electric rail_fast ship container cable_car subway aircraft wheelchair scooter drone" speed="11.11" length="2.50" shape="337.81,140.63 335.58,139.49"/>
        <lane id="-1069919422#0_1" index="1" disallow="tram rail_urban rail rail_electric rail_fast ship container cable_car subway aircraft wheelchair scooter drone" speed="11.11" length="2.50" shape="339.26,137.78 337.03,136.64"/>