<routes>
    <route id="E_to_W" edges="east_start -1069919421 -934134356#1 -934134356#0 -1069919422#1 -1069919422#0 -1444642979#1 -1444642979#0 -1444642978 west_end"/>
    <route id="E_to_N" edges="east_start -1069919421 -934134356#1 -934134356#0 1102489115#0 1102489115#1 24224169#0 north_end"/>
    <route id="E_to_S" edges="east_start -1069919421 -934134356#1 -934134356#0 455558436#0 455558436#1 1069919420 south_end"/>

    <route id="W_to_E" edges="west_start 1444642978 1444642979#0 1444642979#1 1069919422#0 1069919422#1 934134356#0 934134356#1 1069919421 east_end"/>
    <route id="W_to_S" edges="west_start 1444642978 1444642979#0 1444642979#1 1069919422#0 1069919422#1 455558436#0 455558436#1 1069919420 south_end"/>
    <route id="W_to_N" edges="west_start 1444642978 1444642979#0 1444642979#1 1069919422#0 1069919422#1 1102489115#0 1102489115#1 24224169#0 north_end"/>

    <route id="N_to_S" edges="north_start -24224169#0 -1102489115#1 -1102489115#0 455558436#0 455558436#1 1069919420 south_end"/>
    <route id="N_to_E" edges="north_start -24224169#0 -1102489115#1 -1102489115#0 934134356#0 934134356#1 1069919421 east_end"/>
    <route id="N_to_W" edges="north_start -24224169#0 -1102489115#1 -1102489115#0 -1069919422#1 -1069919422#0 -1444642979#1 -1444642979#0 -1444642978 west_end"/>

    <route id="S_to_N" edges="south_start -1069919420 -455558436#1 -455558436#0 1102489115#0 1102489115#1 24224169#0 north_end"/>
    <route id="S_to_W" edges="south_start -1069919420 -455558436#1 -455558436#0 -1069919422#1 -1069919422#0 -1444642979#1 -1444642979#0 -1444642978 west_end"/>
    <route id="S_to_E" edges="south_start 24224171#0 24224171#1 24224171#2 east_end"/>

    <flow id="e_w_0" route="E_to_W" type="realdistribution" begin="0" end="3600" number="468"/>
    <flow id="e_n_0" route="E_to_N" type="realdistribution" begin="0" end="3600" number="93"/>
    <flow id="e_s_0" route="E_to_S" type="realdistribution" begin="0" end="3600" number="62"/>
    <flow id="w_e_0" route="W_to_E" type="realdistribution" begin="0" end="3600" number="520"/>
    <flow id="w_s_0" route="W_to_S" type="realdistribution" begin="0" end="3600" number="104"/>
    <flow id="w_n_0" route="W_to_N" type="realdistribution" begin="0" end="3600" number="69"/>
    <flow id="n_s_0" route="N_to_S" type="realdistribution" begin="0" end="3600" number="59"/>
    <flow id="n_e_0" route="N_to_E" type="realdistribution" begin="0" end="3600" number="68"/>
    <flow id="n_w_0" route="N_to_W" type="realdistribution" begin="0" end="3600" number="68"/>
    <flow id="s_n_0" route="S_to_N" type="realdistribution" begin="0" end="3600" number="59"/>
    <flow id="s_w_0" route="S_to_W" type="realdistribution" begin="0" end="3600" number="68"/>
    <flow id="s_e_0" route="S_to_E" type="realdistribution" begin="0" end="3600" number="68"/>
    <flow id="e_w_1" route="E_to_W" type="realdistribution" begin="3600" end="7200" number="400"/>
    <flow id="e_n_1" route="E_to_N" type="realdistribution" begin="3600" end="7200" number="80"/>
    <flow id="e_s_1" route="E_to_S" type="realdistribution" begin="3600" end="7200" number="53"/>
    <flow id="w_e_1" route="W_to_E" type="realdistribution" begin="3600" end="7200" number="420"/>
    <flow id="w_s_1" route="W_to_S" type="realdistribution" begin="3600" end="7200" number="84"/>
    <flow id="w_n_1" route="W_to_N" type="realdistribution" begin="3600" end="7200" number="56"/>
    <flow id="n_s_1" route="N_to_S" type="realdistribution" begin="3600" end="7200" number="49"/>
    <flow id="n_e_1" route="N_to_E" type="realdistribution" begin="3600" end="7200" number="57"/>
    <flow id="n_w_1" route="N_to_W" type="realdistribution" begin="3600" end="7200" number="57"/>
    <flow id="s_n_1" route="S_to_N" type="realdistribution" begin="3600" end="7200" number="49"/>
    <flow id="s_w_1" route="S_to_W" type="realdistribution" begin="3600" end="7200" number="57"/>
    <flow id="s_e_1" route="S_to_E" type="realdistribution" begin="3600" end="7200" number="57"/>
    <flow id="e_w_2" route="E_to_W" type="realdistribution" begin="7200" end="10800" number="339"/>
    <flow id="e_n_2" route="E_to_N" type="realdistribution" begin="7200" end="10800" number="67"/>
    <flow id="e_s_2" route="E_to_S" type="realdistribution" begin="7200" end="10800" number="45"/>
    <flow id="w_e_2" route="W_to_E" type="realdistribution" begin="7200" end="10800" number="365"/>
    <flow id="w_s_2" route="W_to_S" type="realdistribution" begin="7200" end="10800" number="73"/>
    <flow id="w_n_2" route="W_to_N" type="realdistribution" begin="7200" end="10800" number="48"/>
    <flow id="n_s_2" route="N_to_S" type="realdistribution" begin="7200" end="10800" number="42"/>
    <flow id="n_e_2" route="N_to_E" type="realdistribution" begin="7200" end="10800" number="49"/>
    <flow id="n_w_2" route="N_to_W" type="realdistribution" begin="7200" end="10800" number="49"/>
    <flow id="s_n_2" route="S_to_N" type="realdistribution" begin="7200" end="10800" number="42"/>
    <flow id="s_w_2" route="S_to_W" type="realdistribution" begin="7200" end="10800" number="49"/>
    <flow id="s_e_2" route="S_to_E" type="realdistribution" begin="7200" end="10800" number="49"/>
    <flow id="e_w_3" route="E_to_W" type="realdistribution" begin="10800" end="14400" number="309"/>
    <flow id="e_n_3" route="E_to_N" type="realdistribution" begin="10800" end="14400" number="61"/>
    <flow id="e_s_3" route="E_to_S" type="realdistribution" begin="10800" end="14400" number="41"/>
    <flow id="w_e_3" route="W_to_E" type="realdistribution" begin="10800" end="14400" number="347"/>
    <flow id="w_s_3" route="W_to_S" type="realdistribution" begin="10800" end="14400" number="69"/>
    <flow id="w_n_3" route="W_to_N" type="realdistribution" begin="10800" end="14400" number="46"/>
    <flow id="n_s_3" route="N_to_S" type="realdistribution" begin="10800" end="14400" number="39"/>
    <flow id="n_e_3" route="N_to_E" type="realdistribution" begin="10800" end="14400" number="45"/>
    <flow id="n_w_3" route="N_to_W" type="realdistribution" begin="10800" end="14400" number="45"/>
    <flow id="s_n_3" route="S_to_N" type="realdistribution" begin="10800" end="14400" number="39"/>
    <flow id="s_w_3" route="S_to_W" type="realdistribution" begin="10800" end="14400" number="45"/>
    <flow id="s_e_3" route="S_to_E" type="realdistribution" begin="10800" end="14400" number="45"/>
    <flow id="e_w_4" route="E_to_W" type="realdistribution" begin="14400" end="18000" number="368"/>
    <flow id="e_n_4" route="E_to_N" type="realdistribution" begin="14400" end="18000" number="73"/>
    <flow id="e_s_4" route="E_to_S" type="realdistribution" begin="14400" end="18000" number="49"/>
    <flow id="w_e_4" route="W_to_E" type="realdistribution" begin="14400" end="18000" number="360"/>
    <flow id="w_s_4" route="W_to_S" type="realdistribution" begin="14400" end="18000" number="72"/>
    <flow id="w_n_4" route="W_to_N" type="realdistribution" begin="14400" end="18000" number="48"/>
    <flow id="n_s_4" route="N_to_S" type="realdistribution" begin="14400" end="18000" number="43"/>
    <flow id="n_e_4" route="N_to_E" type="realdistribution" begin="14400" end="18000" number="50"/>
    <flow id="n_w_4" route="N_to_W" type="realdistribution" begin="14400" end="18000" number="50"/>
    <flow id="s_n_4" route="S_to_N" type="realdistribution" begin="14400" end="18000" number="43"/>
    <flow id="s_w_4" route="S_to_W" type="realdistribution" begin="14400" end="18000" number="50"/>
    <flow id="s_e_4" route="S_to_E" type="realdistribution" begin="14400" end="18000" number="50"/>
    <flow id="e_w_5" route="E_to_W" type="realdistribution" begin="18000" end="21600" number="429"/>
    <flow id="e_n_5" route="E_to_N" type="realdistribution" begin="18000" end="21600" number="85"/>
    <flow id="e_s_5" route="E_to_S" type="realdistribution" begin="18000" end="21600" number="57"/>
    <flow id="w_e_5" route="W_to_E" type="realdistribution" begin="18000" end="21600" number="430"/>
    <flow id="w_s_5" route="W_to_S" type="realdistribution" begin="18000" end="21600" number="86"/>
    <flow id="w_n_5" route="W_to_N" type="realdistribution" begin="18000" end="21600" number="57"/>
    <flow id="n_s_5" route="N_to_S" type="realdistribution" begin="18000" end="21600" number="51"/>
    <flow id="n_e_5" route="N_to_E" type="realdistribution" begin="18000" end="21600" number="60"/>
    <flow id="n_w_5" route="N_to_W" type="realdistribution" begin="18000" end="21600" number="60"/>
    <flow id="s_n_5" route="S_to_N" type="realdistribution" begin="18000" end="21600" number="51"/>
    <flow id="s_w_5" route="S_to_W" type="realdistribution" begin="18000" end="21600" number="60"/>
    <flow id="s_e_5" route="S_to_E" type="realdistribution" begin="18000" end="21600" number="60"/>
    <flow id="e_w_6" route="E_to_W" type="realdistribution" begin="21600" end="25200" number="587"/>
    <flow id="e_n_6" route="E_to_N" type="realdistribution" begin="21600" end="25200" number="117"/>
    <flow id="e_s_6" route="E_to_S" type="realdistribution" begin="21600" end="25200" number="78"/>
    <flow id="w_e_6" route="W_to_E" type="realdistribution" begin="21600" end="25200" number="617"/>
    <flow id="w_s_6" route="W_to_S" type="realdistribution" begin="21600" end="25200" number="123"/>
    <flow id="w_n_6" route="W_to_N" type="realdistribution" begin="21600" end="25200" number="82"/>
    <flow id="n_s_6" route="N_to_S" type="realdistribution" begin="21600" end="25200" number="72"/>
    <flow id="n_e_6" route="N_to_E" type="realdistribution" begin="21600" end="25200" number="84"/>
    <flow id="n_w_6" route="N_to_W" type="realdistribution" begin="21600" end="25200" number="84"/>
    <flow id="s_n_6" route="S_to_N" type="realdistribution" begin="21600" end="25200" number="72"/>
    <flow id="s_w_6" route="S_to_W" type="realdistribution" begin="21600" end="25200" number="84"/>
    <flow id="s_e_6" route="S_to_E" type="realdistribution" begin="21600" end="25200" number="84"/>
    <flow id="e_w_7" route="E_to_W" type="realdistribution" begin="25200" end="28800" number="638"/>
    <flow id="e_n_7" route="E_to_N" type="realdistribution" begin="25200" end="28800" number="127"/>
    <flow id="e_s_7" route="E_to_S" type="realdistribution" begin="25200" end="28800" number="85"/>
    <flow id="w_e_7" route="W_to_E" type="realdistribution" begin="25200" end="28800" number="756"/>
    <flow id="w_s_7" route="W_to_S" type="realdistribution" begin="25200" end="28800" number="151"/>
    <flow id="w_n_7" route="W_to_N" type="realdistribution" begin="25200" end="28800" number="100"/>
    <flow id="n_s_7" route="N_to_S" type="realdistribution" begin="25200" end="28800" number="83"/>
    <flow id="n_e_7" route="N_to_E" type="realdistribution" begin="25200" end="28800" number="97"/>
    <flow id="n_w_7" route="N_to_W" type="realdistribution" begin="25200" end="28800" number="97"/>
    <flow id="s_n_7" route="S_to_N" type="realdistribution" begin="25200" end="28800" number="83"/>
    <flow id="s_w_7" route="S_to_W" type="realdistribution" begin="25200" end="28800" number="97"/>
    <flow id="s_e_7" route="S_to_E" type="realdistribution" begin="25200" end="28800" number="97"/>
    <flow id="e_w_8" route="E_to_W" type="realdistribution" begin="28800" end="32400" number="755"/>
    <flow id="e_n_8" route="E_to_N" type="realdistribution" begin="28800" end="32400" number="151"/>
    <flow id="e_s_8" route="E_to_S" type="realdistribution" begin="28800" end="32400" number="100"/>
    <flow id="w_e_8" route="W_to_E" type="realdistribution" begin="28800" end="32400" number="825"/>
    <flow id="w_s_8" route="W_to_S" type="realdistribution" begin="28800" end="32400" number="165"/>
    <flow id="w_n_8" route="W_to_N" type="realdistribution" begin="28800" end="32400" number="110"/>
    <flow id="n_s_8" route="N_to_S" type="realdistribution" begin="28800" end="32400" number="94"/>
    <flow id="n_e_8" route="N_to_E" type="realdistribution" begin="28800" end="32400" number="110"/>
    <flow id="n_w_8" route="N_to_W" type="realdistribution" begin="28800" end="32400" number="110"/>
    <flow id="s_n_8" route="S_to_N" type="realdistribution" begin="28800" end="32400" number="94"/>
    <flow id="s_w_8" route="S_to_W" type="realdistribution" begin="28800" end="32400" number="110"/>
    <flow id="s_e_8" route="S_to_E" type="realdistribution" begin="28800" end="32400" number="110"/>
    <flow id="e_w_9" route="E_to_W" type="realdistribution" begin="32400" end="36000" number="755"/>
    <flow id="e_n_9" route="E_to_N" type="realdistribution" begin="32400" end="36000" number="151"/>
    <flow id="e_s_9" route="E_to_S" type="realdistribution" begin="32400" end="36000" number="100"/>
    <flow id="w_e_9" route="W_to_E" type="realdistribution" begin="32400" end="36000" number="889"/>
    <flow id="w_s_9" route="W_to_S" type="realdistribution" begin="32400" end="36000" number="177"/>
    <flow id="w_n_9" route="W_to_N" type="realdistribution" begin="32400" end="36000" number="118"/>
    <flow id="n_s_9" route="N_to_S" type="realdistribution" begin="32400" end="36000" number="98"/>
    <flow id="n_e_9" route="N_to_E" type="realdistribution" begin="32400" end="36000" number="114"/>
    <flow id="n_w_9" route="N_to_W" type="realdistribution" begin="32400" end="36000" number="114"/>
    <flow id="s_n_9" route="S_to_N" type="realdistribution" begin="32400" end="36000" number="98"/>
    <flow id="s_w_9" route="S_to_W" type="realdistribution" begin="32400" end="36000" number="114"/>
    <flow id="s_e_9" route="S_to_E" type="realdistribution" begin="32400" end="36000" number="114"/>
    <flow id="e_w_10" route="E_to_W" type="realdistribution" begin="36000" end="39600" number="885"/>
    <flow id="e_n_10" route="E_to_N" type="realdistribution" begin="36000" end="39600" number="177"/>
    <flow id="e_s_10" route="E_to_S" type="realdistribution" begin="36000" end="39600" number="118"/>
    <flow id="w_e_10" route="W_to_E" type="realdistribution" begin="36000" end="39600" number="945"/>
    <flow id="w_s_10" route="W_to_S" type="realdistribution" begin="36000" end="39600" number="189"/>
    <flow id="w_n_10" route="W_to_N" type="realdistribution" begin="36000" end="39600" number="126"/>
    <flow id="n_s_10" route="N_to_S" type="realdistribution" begin="36000" end="39600" number="109"/>
    <flow id="n_e_10" route="N_to_E" type="realdistribution" begin="36000" end="39600" number="128"/>
    <flow id="n_w_10" route="N_to_W" type="realdistribution" begin="36000" end="39600" number="128"/>
    <flow id="s_n_10" route="S_to_N" type="realdistribution" begin="36000" end="39600" number="109"/>
    <flow id="s_w_10" route="S_to_W" type="realdistribution" begin="36000" end="39600" number="128"/>
    <flow id="s_e_10" route="S_to_E" type="realdistribution" begin="36000" end="39600" number="128"/>
    <flow id="e_w_11" route="E_to_W" type="realdistribution" begin="39600" end="43200" number="880"/>
    <flow id="e_n_11" route="E_to_N" type="realdistribution" begin="39600" end="43200" number="176"/>
    <flow id="e_s_11" route="E_to_S" type="realdistribution" begin="39600" end="43200" number="117"/>
    <flow id="w_e_11" route="W_to_E" type="realdistribution" begin="39600" end="43200" number="932"/>
    <flow id="w_s_11" route="W_to_S" type="realdistribution" begin="39600" end="43200" number="186"/>
    <flow id="w_n_11" route="W_to_N" type="realdistribution" begin="39600" end="43200" number="124"/>
    <flow id="n_s_11" route="N_to_S" type="realdistribution" begin="39600" end="43200" number="108"/>
    <flow id="n_e_11" route="N_to_E" type="realdistribution" begin="39600" end="43200" number="126"/>
    <flow id="n_w_11" route="N_to_W" type="realdistribution" begin="39600" end="43200" number="126"/>
    <flow id="s_n_11" route="S_to_N" type="realdistribution" begin="39600" end="43200" number="108"/>
    <flow id="s_w_11" route="S_to_W" type="realdistribution" begin="39600" end="43200" number="126"/>
    <flow id="s_e_11" route="S_to_E" type="realdistribution" begin="39600" end="43200" number="126"/>
    <flow id="e_w_12" route="E_to_W" type="realdistribution" begin="43200" end="46800" number="912"/>
    <flow id="e_n_12" route="E_to_N" type="realdistribution" begin="43200" end="46800" number="182"/>
    <flow id="e_s_12" route="E_to_S" type="realdistribution" begin="43200" end="46800" number="121"/>
    <flow id="w_e_12" route="W_to_E" type="realdistribution" begin="43200" end="46800" number="897"/>
    <flow id="w_s_12" route="W_to_S" type="realdistribution" begin="43200" end="46800" number="179"/>
    <flow id="w_n_12" route="W_to_N" type="realdistribution" begin="43200" end="46800" number="119"/>
    <flow id="n_s_12" route="N_to_S" type="realdistribution" begin="43200" end="46800" number="108"/>
    <flow id="n_e_12" route="N_to_E" type="realdistribution" begin="43200" end="46800" number="126"/>
    <flow id="n_w_12" route="N_to_W" type="realdistribution" begin="43200" end="46800" number="126"/>
    <flow id="s_n_12" route="S_to_N" type="realdistribution" begin="43200" end="46800" number="108"/>
    <flow id="s_w_12" route="S_to_W" type="realdistribution" begin="43200" end="46800" number="126"/>
    <flow id="s_e_12" route="S_to_E" type="realdistribution" begin="43200" end="46800" number="126"/>
    <flow id="e_w_13" route="E_to_W" type="realdistribution" begin="46800" end="50400" number="858"/>
    <flow id="e_n_13" route="E_to_N" type="realdistribution" begin="46800" end="50400" number="171"/>
    <flow id="e_s_13" route="E_to_S" type="realdistribution" begin="46800" end="50400" number="114"/>
    <flow id="w_e_13" route="W_to_E" type="realdistribution" begin="46800" end="50400" number="906"/>
    <flow id="w_s_13" route="W_to_S" type="realdistribution" begin="46800" end="50400" number="181"/>
    <flow id="w_n_13" route="W_to_N" type="realdistribution" begin="46800" end="50400" number="120"/>
    <flow id="n_s_13" route="N_to_S" type="realdistribution" begin="46800" end="50400" number="105"/>
    <flow id="n_e_13" route="N_to_E" type="realdistribution" begin="46800" end="50400" number="123"/>
    <flow id="n_w_13" route="N_to_W" type="realdistribution" begin="46800" end="50400" number="123"/>
    <flow id="s_n_13" route="S_to_N" type="realdistribution" begin="46800" end="50400" number="105"/>
    <flow id="s_w_13" route="S_to_W" type="realdistribution" begin="46800" end="50400" number="123"/>
    <flow id="s_e_13" route="S_to_E" type="realdistribution" begin="46800" end="50400" number="123"/>
    <flow id="e_w_14" route="E_to_W" type="realdistribution" begin="50400" end="54000" number="801"/>
    <flow id="e_n_14" route="E_to_N" type="realdistribution" begin="50400" end="54000" number="160"/>
    <flow id="e_s_14" route="E_to_S" type="realdistribution" begin="50400" end="54000" number="106"/>
    <flow id="w_e_14" route="W_to_E" type="realdistribution" begin="50400" end="54000" number="765"/>
    <flow id="w_s_14" route="W_to_S" type="realdistribution" begin="50400" end="54000" number="153"/>
    <flow id="w_n_14" route="W_to_N" type="realdistribution" begin="50400" end="54000" number="102"/>
    <flow id="n_s_14" route="N_to_S" type="realdistribution" begin="50400" end="54000" number="93"/>
    <flow id="n_e_14" route="N_to_E" type="realdistribution" begin="50400" end="54000" number="109"/>
    <flow id="n_w_14" route="N_to_W" type="realdistribution" begin="50400" end="54000" number="109"/>
    <flow id="s_n_14" route="S_to_N" type="realdistribution" begin="50400" end="54000" number="93"/>
    <flow id="s_w_14" route="S_to_W" type="realdistribution" begin="50400" end="54000" number="109"/>
    <flow id="s_e_14" route="S_to_E" type="realdistribution" begin="50400" end="54000" number="109"/>
    <flow id="e_w_15" route="E_to_W" type="realdistribution" begin="54000" end="57600" number="798"/>
    <flow id="e_n_15" route="E_to_N" type="realdistribution" begin="54000" end="57600" number="159"/>
    <flow id="e_s_15" route="E_to_S" type="realdistribution" begin="54000" end="57600" number="106"/>
    <flow id="w_e_15" route="W_to_E" type="realdistribution" begin="54000" end="57600" number="824"/>
    <flow id="w_s_15" route="W_to_S" type="realdistribution" begin="54000" end="57600" number="164"/>
    <flow id="w_n_15" route="W_to_N" type="realdistribution" begin="54000" end="57600" number="109"/>
    <flow id="n_s_15" route="N_to_S" type="realdistribution" begin="54000" end="57600" number="97"/>
    <flow id="n_e_15" route="N_to_E" type="realdistribution" begin="54000" end="57600" number="113"/>
    <flow id="n_w_15" route="N_to_W" type="realdistribution" begin="54000" end="57600" number="113"/>
    <flow id="s_n_15" route="S_to_N" type="realdistribution" begin="54000" end="57600" number="97"/>
    <flow id="s_w_15" route="S_to_W" type="realdistribution" begin="54000" end="57600" number="113"/>
    <flow id="s_e_15" route="S_to_E" type="realdistribution" begin="54000" end="57600" number="113"/>
    <flow id="e_w_16" route="E_to_W" type="realdistribution" begin="57600" end="61200" number="821"/>
    <flow id="e_n_16" route="E_to_N" type="realdistribution" begin="57600" end="61200" number="164"/>
    <flow id="e_s_16" route="E_to_S" type="realdistribution" begin="57600" end="61200" number="109"/>
    <flow id="w_e_16" route="W_to_E" type="realdistribution" begin="57600" end="61200" number="888"/>
    <flow id="w_s_16" route="W_to_S" type="realdistribution" begin="57600" end="61200" number="177"/>
    <flow id="w_n_16" route="W_to_N" type="realdistribution" begin="57600" end="61200" number="118"/>
    <flow id="n_s_16" route="N_to_S" type="realdistribution" begin="57600" end="61200" number="102"/>
    <flow id="n_e_16" route="N_to_E" type="realdistribution" begin="57600" end="61200" number="119"/>
    <flow id="n_w_16" route="N_to_W" type="realdistribution" begin="57600" end="61200" number="119"/>
    <flow id="s_n_16" route="S_to_N" type="realdistribution" begin="57600" end="61200" number="102"/>
    <flow id="s_w_16" route="S_to_W" type="realdistribution" begin="57600" end="61200" number="119"/>
    <flow id="s_e_16" route="S_to_E" type="realdistribution" begin="57600" end="61200" number="119"/>
    <flow id="e_w_17" route="E_to_W" type="realdistribution" begin="61200" end="64800" number="811"/>
    <flow id="e_n_17" route="E_to_N" type="realdistribution" begin="61200" end="64800" number="162"/>
    <flow id="e_s_17" route="E_to_S" type="realdistribution" begin="61200" end="64800" number="108"/>
    <flow id="w_e_17" route="W_to_E" type="realdistribution" begin="61200" end="64800" number="870"/>
    <flow id="w_s_17" route="W_to_S" type="realdistribution" begin="61200" end="64800" number="174"/>
    <flow id="w_n_17" route="W_to_N" type="realdistribution" begin="61200" end="64800" number="116"/>
    <flow id="n_s_17" route="N_to_S" type="realdistribution" begin="61200" end="64800" number="100"/>
    <flow id="n_e_17" route="N_to_E" type="realdistribution" begin="61200" end="64800" number="117"/>
    <flow id="n_w_17" route="N_to_W" type="realdistribution" begin="61200" end="64800" number="117"/>
    <flow id="s_n_17" route="S_to_N" type="realdistribution" begin="61200" end="64800" number="100"/>
    <flow id="s_w_17" route="S_to_W" type="realdistribution" begin="61200" end="64800" number="117"/>
    <flow id="s_e_17" route="S_to_E" type="realdistribution" begin="61200" end="64800" number="117"/>
    <flow id="e_w_18" route="E_to_W" type="realdistribution" begin="64800" end="68400" number="819"/>
    <flow id="e_n_18" route="E_to_N" type="realdistribution" begin="64800" end="68400" number="163"/>
    <flow id="e_s_18" route="E_to_S" type="realdistribution" begin="64800" end="68400" number="109"/>
    <flow id="w_e_18" route="W_to_E" type="realdistribution" begin="64800" end="68400" number="886"/>
    <flow id="w_s_18" route="W_to_S" type="realdistribution" begin="64800" end="68400" number="177"/>
    <flow id="w_n_18" route="W_to_N" type="realdistribution" begin="64800" end="68400" number="118"/>
    <flow id="n_s_18" route="N_to_S" type="realdistribution" begin="64800" end="68400" number="102"/>
    <flow id="n_e_18" route="N_to_E" type="realdistribution" begin="64800" end="68400" number="119"/>
    <flow id="n_w_18" route="N_to_W" type="realdistribution" begin="64800" end="68400" number="119"/>
    <flow id="s_n_18" route="S_to_N" type="realdistribution" begin="64800" end="68400" number="102"/>
    <flow id="s_w_18" route="S_to_W" type="realdistribution" begin="64800" end="68400" number="119"/>
    <flow id="s_e_18" route="S_to_E" type="realdistribution" begin="64800" end="68400" number="119"/>
    <flow id="e_w_19" route="E_to_W" type="realdistribution" begin="68400" end="72000" number="816"/>
    <flow id="e_n_19" route="E_to_N" type="realdistribution" begin="68400" end="72000" number="163"/>
    <flow id="e_s_19" route="E_to_S" type="realdistribution" begin="68400" end="72000" number="108"/>
    <flow id="w_e_19" route="W_to_E" type="realdistribution" begin="68400" end="72000" number="915"/>
    <flow id="w_s_19" route="W_to_S" type="realdistribution" begin="68400" end="72000" number="183"/>
    <flow id="w_n_19" route="W_to_N" type="realdistribution" begin="68400" end="72000" number="122"/>
    <flow id="n_s_19" route="N_to_S" type="realdistribution" begin="68400" end="72000" number="103"/>
    <flow id="n_e_19" route="N_to_E" type="realdistribution" begin="68400" end="72000" number="121"/>
    <flow id="n_w_19" route="N_to_W" type="realdistribution" begin="68400" end="72000" number="121"/>
    <flow id="s_n_19" route="S_to_N" type="realdistribution" begin="68400" end="72000" number="103"/>
    <flow id="s_w_19" route="S_to_W" type="realdistribution" begin="68400" end="72000" number="121"/>
    <flow id="s_e_19" route="S_to_E" type="realdistribution" begin="68400" end="72000" number="121"/>
    <flow id="e_w_20" route="E_to_W" type="realdistribution" begin="72000" end="75600" number="838"/>
    <flow id="e_n_20" route="E_to_N" type="realdistribution" begin="72000" end="75600" number="167"/>
    <flow id="e_s_20" route="E_to_S" type="realdistribution" begin="72000" end="75600" number="111"/>
    <flow id="w_e_20" route="W_to_E" type="realdistribution" begin="72000" end="75600" number="984"/>
    <flow id="w_s_20" route="W_to_S" type="realdistribution" begin="72000" end="75600" number="196"/>
    <flow id="w_n_20" route="W_to_N" type="realdistribution" begin="72000" end="75600" number="131"/>
    <flow id="n_s_20" route="N_to_S" type="realdistribution" begin="72000" end="75600" number="109"/>
    <flow id="n_e_20" route="N_to_E" type="realdistribution" begin="72000" end="75600" number="127"/>
    <flow id="n_w_20" route="N_to_W" type="realdistribution" begin="72000" end="75600" number="127"/>
    <flow id="s_n_20" route="S_to_N" type="realdistribution" begin="72000" end="75600" number="109"/>
    <flow id="s_w_20" route="S_to_W" type="realdistribution" begin="72000" end="75600" number="127"/>
    <flow id="s_e_20" route="S_to_E" type="realdistribution" begin="72000" end="75600" number="127"/>
    <flow id="e_w_21" route="E_to_W" type="realdistribution" begin="75600" end="79200" number="768"/>
    <flow id="e_n_21" route="E_to_N" type="realdistribution" begin="75600" end="79200" number="153"/>
    <flow id="e_s_21" route="E_to_S" type="realdistribution" begin="75600" end="79200" number="102"/>
    <flow id="w_e_21" route="W_to_E" type="realdistribution" begin="75600" end="79200" number="840"/>
    <flow id="w_s_21" route="W_to_S" type="realdistribution" begin="75600" end="79200" number="168"/>
    <flow id="w_n_21" route="W_to_N" type="realdistribution" begin="75600" end="79200" number="112"/>
    <flow id="n_s_21" route="N_to_S" type="realdistribution" begin="75600" end="79200" number="96"/>
    <flow id="n_e_21" route="N_to_E" type="realdistribution" begin="75600" end="79200" number="112"/>
    <flow id="n_w_21" route="N_to_W" type="realdistribution" begin="75600" end="79200" number="112"/>
    <flow id="s_n_21" route="S_to_N" type="realdistribution" begin="75600" end="79200" number="96"/>
    <flow id="s_w_21" route="S_to_W" type="realdistribution" begin="75600" end="79200" number="112"/>
    <flow id="s_e_21" route="S_to_E" type="realdistribution" begin="75600" end="79200" number="112"/>
    <flow id="e_w_22" route="E_to_W" type="realdistribution" begin="79200" end="82800" number="615"/>
    <flow id="e_n_22" route="E_to_N" type="realdistribution" begin="79200" end="82800" number="123"/>
    <flow id="e_s_22" route="E_to_S" type="realdistribution" begin="79200" end="82800" number="82"/>
    <flow id="w_e_22" route="W_to_E" type="realdistribution" begin="79200" end="82800" number="699"/>
    <flow id="w_s_22" route="W_to_S" type="realdistribution" begin="79200" end="82800" number="139"/>
    <flow id="w_n_22" route="W_to_N" type="realdistribution" begin="79200" end="82800" number="93"/>
    <flow id="n_s_22" route="N_to_S" type="realdistribution" begin="79200" end="82800" number="78"/>
    <flow id="n_e_22" route="N_to_E" type="realdistribution" begin="79200" end="82800" number="91"/>
    <flow id="n_w_22" route="N_to_W" type="realdistribution" begin="79200" end="82800" number="91"/>
    <flow id="s_n_22" route="S_to_N" type="realdistribution" begin="79200" end="82800" number="78"/>
    <flow id="s_w_22" route="S_to_W" type="realdistribution" begin="79200" end="82800" number="91"/>
    <flow id="s_e_22" route="S_to_E" type="realdistribution" begin="79200" end="82800" number="91"/>
    <flow id="e_w_23" route="E_to_W" type="realdistribution" begin="82800" end="86400" number="477"/>
    <flow id="e_n_23" route="E_to_N" type="realdistribution" begin="82800" end="86400" number="95"/>
    <flow id="e_s_23" route="E_to_S" type="realdistribution" begin="82800" end="86400" number="63"/>
    <flow id="w_e_23" route="W_to_E" type="realdistribution" begin="82800" end="86400" number="575"/>